
  EPA STORM WATER MANAGEMENT MODEL - VERSION 5.1 (Build 5.1.015)
  --------------------------------------------------------------

  
  *********************
  Rainfall File Summary
  *********************
  Station    First        Last         Recording   Periods    Periods    Periods
  ID         Date         Date         Frequency  w/Precip    Missing    Malfunc.
  -------------------------------------------------------------------------------
  STA01      07/06/2021   07/06/2021       5 min        49          0          0

  
  *********************************************************
  NOTE: The summary statistics displayed in this report are
  based on results found at every computational time step,  
  not just on results from each reporting time step.
  *********************************************************
  
  ****************
  Analysis Options
  ****************
  Flow Units ............... LPS
  Process Models:
    Rainfall/Runoff ........ YES
    RDII ................... NO
    Snowmelt ............... NO
    Groundwater ............ NO
    Flow Routing ........... YES
    Ponding Allowed ........ YES
    Water Quality .......... NO
  Infiltration Method ...... GREEN_AMPT
  Flow Routing Method ...... DYNWAVE
  Surcharge Method ......... EXTRAN
  Starting Date ............ 07/06/2021 00:00:00
  Ending Date .............. 07/06/2021 05:00:00
  Antecedent Dry Days ...... 0.0
  Report Time Step ......... 00:05:00
  Wet Time Step ............ 00:01:00
  Dry Time Step ............ 00:01:00
  Routing Time Step ........ 1.00 sec
  Variable Time Step ....... YES
  Maximum Trials ........... 8
  Number of Threads ........ 1
  Head Tolerance ........... 0.001500 m
  
  
  *********************
  Control Actions Taken
  *********************

  
  **************************        Volume         Depth
  Runoff Quantity Continuity     hectare-m            mm
  **************************     ---------       -------
  Initial LID Storage ......         0.085         1.441
  Initial Snow Cover .......         0.000         0.000
  Total Precipitation ......        17.481       295.649
  Evaporation Loss .........         0.007         0.114
  Infiltration Loss ........         4.160        70.360
  Surface Runoff ...........         6.704       113.379
  LID Drainage .............         5.749        97.238
  Snow Removed .............         0.000         0.000
  Final Snow Cover .........         0.000         0.000
  Final Storage ............         0.958        16.195
  Continuity Error (%) .....        -0.066
  
  
  **************************        Volume        Volume
  Flow Routing Continuity        hectare-m      10^6 ltr
  **************************     ---------     ---------
  Dry Weather Inflow .......         0.000         0.000
  Wet Weather Inflow .......        12.451       124.514
  Groundwater Inflow .......         0.000         0.000
  RDII Inflow ..............         0.000         0.000
  External Inflow ..........         0.117         1.170
  External Outflow .........        12.349       123.496
  Flooding Loss ............         0.000         0.000
  Evaporation Loss .........         0.000         0.000
  Exfiltration Loss ........         0.000         0.000
  Initial Stored Volume ....         0.000         0.000
  Final Stored Volume ......         0.222         2.218
  Continuity Error (%) .....        -0.023
  
  
  *************************
  Highest Continuity Errors
  *************************
  Node SBP40098201 (-8.23%)
  Node SWD40315731 (2.63%)
  Node SMH4028979 (-1.26%)
  Node SMH4028492 (1.20%)
  Node SMH4029090 (1.17%)
  
  
  ***************************
  Time-Step Critical Elements
  ***************************
  Link SWD40316102 (94.40%)
  Link SBP40091031 (5.28%)
  
  
  ********************************
  Highest Flow Instability Indexes
  ********************************
  Link SBP40098201 (60)
  Link SBP4013682 (57)
  Link SWD4032053 (54)
  Link SWD4032050 (53)
  Link SWD4031438 (52)
  
  
  *************************
  Routing Time Step Summary
  *************************
  Minimum Time Step           :     0.20 sec
  Average Time Step           :     0.50 sec
  Maximum Time Step           :     1.00 sec
  Percent in Steady State     :     0.00
  Average Iterations per Step :     4.96
  Percent Not Converging      :    22.17
  Time Step Frequencies       :
      1.000 -  0.871 sec      :     0.05 %
      0.871 -  0.758 sec      :     0.04 %
      0.758 -  0.660 sec      :     0.05 %
      0.660 -  0.574 sec      :     0.06 %
      0.574 -  0.500 sec      :    99.80 %
  
  
  ***************************
  Subcatchment Runoff Summary
  ***************************
  
  ------------------------------------------------------------------------------------------------------------------------------
                            Total      Total      Total      Total     Imperv       Perv      Total       Total     Peak  Runoff
                           Precip      Runon       Evap      Infil     Runoff     Runoff     Runoff      Runoff   Runoff   Coeff
  Subcatchment                 mm         mm         mm         mm         mm         mm         mm    10^6 ltr      LPS
  ------------------------------------------------------------------------------------------------------------------------------
  s1                       295.65      47.86       0.10     236.13     160.12      14.08      74.09        0.00     2.79   0.216
  s10                      295.65       0.00       0.09     201.47     139.37      11.21      94.14        0.00     0.41   0.318
  s100                     295.65       0.00       0.14       0.00     295.29       0.00     295.29        0.03     8.10   0.999
  s1000                    295.65       0.00       0.08     216.49     123.76       9.95      56.15        0.00     0.92   0.190
  s1001                    295.65       0.00       0.08     225.06     109.86       8.83      44.19        0.00     4.30   0.149
  s1002                    295.65       0.00       0.08     224.32     111.37       8.95      45.37        0.00     3.19   0.153
  s1003                    295.65       0.00       0.08     216.50     123.77       9.95      56.15        0.00     0.92   0.190
  s1004                    295.65   16321.40       0.11      56.62   16559.05       0.00   16560.24        1.86   540.59   0.997
  s1005                    295.65       0.00       0.05      73.95      29.80     191.97     221.77        0.01     3.85   0.750
  s1006                    295.65       0.00       0.06      75.86      29.80     189.99     219.79        0.00     0.51   0.743
  s1007                    295.65    1499.34       0.07      77.04     180.93    1537.17    1718.11        0.08    25.74   0.957
  s1008                    295.65      72.32       0.08      78.37      37.08     252.48     289.56        0.26    85.40   0.787
  s1009                    295.65   19645.61       0.13      85.66    2010.09   17845.95   19856.04        1.49   446.58   0.996
  s101                     295.65       0.00       0.14       0.00     295.31       0.00     295.31        0.01     2.90   0.999
  s1010                    295.65       0.00       0.04      73.76      29.54     192.45     221.99        0.00     0.56   0.751
  s1011                    295.65      63.89       0.05      74.51      35.91     249.17     285.09        0.01     4.96   0.793
  s1012                    295.65       0.00       0.05      74.05      29.53     192.14     221.68        0.00     1.65   0.750
  s1013                    295.65       0.00       0.05      73.88      29.54     192.33     221.87        0.00     0.56   0.750
  s1014                    295.65       0.00       0.05      73.99      29.53     192.20     221.74        0.00     1.65   0.750
  s1015                    295.65     521.86       0.08      77.64      81.68     658.19     739.87        0.05    15.14   0.905
  s1016                    295.65       0.00       0.04      73.76      29.54     192.45     221.99        0.00     0.56   0.751
  s1017                    295.65     444.06       0.05      74.94      73.92     590.98     664.90        0.02     8.25   0.899
  s1018                    295.65     812.72       0.06      75.61     110.76     922.17    1032.93        0.04    15.12   0.932
  s1019                    295.65    2484.99       0.13      85.09     277.88    2417.75    2695.64        1.47   442.83   0.969
  s102                     295.65       0.00       0.14       0.00     295.32       0.00     295.32        0.01     3.47   0.999
  s1020                    295.65       0.00       0.12      45.96     248.72       0.00     249.69        0.00     0.53   0.845
  s1021                    295.65       0.00       0.12      45.96     248.73       0.00     249.70        0.00     0.53   0.845
  s1022                    295.65       0.00       0.04      73.77      29.80     192.16     221.97        0.00     0.55   0.751
  s1023                    295.65       0.00       0.04      73.53      29.80     192.44     222.24        0.00     0.56   0.752
  s1024                    295.65       0.00       0.04      73.82      29.80     192.12     221.92        0.01     2.75   0.751
  s1025                    295.65       0.00       0.04      73.26      29.94     192.71     222.66        0.00     0.56   0.753
  s1026                    295.65       0.00       0.04      73.32      29.80     192.65     222.45        0.00     0.56   0.752
  s1027                    295.65       0.00       0.12      46.45     248.20       0.00     249.18        0.00     1.56   0.843
  s1028                    295.65       0.00       0.04      73.26      29.80     192.73     222.54        0.00     0.56   0.753
  s1029                    295.65       0.00       0.04      73.53      29.80     192.44     222.24        0.00     0.56   0.752
  s103                     295.65       0.00       0.14       0.00     295.52       0.00     295.52        0.00     0.58   1.000
  s1030                    295.65       0.00       0.05      74.31      29.80     191.59     221.39        0.00     1.09   0.749
  s1031                    295.65       0.00       0.09      79.66      29.79     186.14     215.93        0.02     5.60   0.730
  s1032                    295.65       0.00       0.08      77.81      29.79     188.00     217.80        0.01     2.24   0.737
  s1033                    295.65       0.00       0.07      76.58      29.79     189.26     219.05        0.00     0.97   0.741
  s1034                    295.65       0.00       0.05      73.85      29.80     192.07     221.88        0.00     1.65   0.750
  s1035                    295.65       0.00       0.04      73.36      29.80     192.61     222.41        0.00     0.56   0.752
  s1036                    295.65       0.00       0.04      73.55      29.80     192.41     222.22        0.00     1.65   0.752
  s1037                    295.65       0.00       0.05      74.52      29.80     191.36     221.17        0.02     8.68   0.748
  s1038                    295.65       0.00       0.04      73.32      29.80     192.65     222.45        0.00     0.56   0.752
  s1039                    295.65       0.00       0.12      52.89     241.60       0.00     242.71        0.01     3.61   0.821
  s104                     295.65     482.75       0.11      57.14     720.00       0.00     721.20        0.14    43.67   0.927
  s1040                    295.65       0.00       0.12      45.96     248.72       0.00     249.69        0.00     0.53   0.845
  s1041                    295.65     111.01       0.11      57.38     347.77       0.00     348.98        0.15    80.17   0.858
  s1042                    295.65       0.00       0.12      45.96     248.73       0.00     249.70        0.00     0.53   0.845
  s1043                    295.65       0.00       0.04      73.26      29.80     192.73     222.54        0.00     0.56   0.753
  s1044                    295.65       0.00       0.05      73.85      29.80     192.08     221.89        0.01     2.75   0.751
  s1045                    295.65       0.00       0.12      82.94      29.78     182.81     212.60        0.52   132.06   0.719
  s1046                    295.65       0.00       0.04      73.29      29.80     192.68     222.48        0.00     0.56   0.753
  s1047                    295.65       0.00       0.08     223.10     113.05       9.11      45.62        0.00     1.45   0.154
  s1048                    295.65       0.00       0.09     201.48     139.37      11.23      94.16        0.00     0.41   0.318
  s1049                    295.65       0.00       0.09     201.48     139.36      11.23      94.16        0.00     0.41   0.318
  s105                     295.65       0.00       0.14       0.00     295.38       0.00     295.38        0.00     0.58   0.999
  s1050                    295.65       0.00       0.08     223.10     113.05       9.11      45.62        0.00     1.45   0.154
  s1051                    295.65       0.00       0.08     223.10     113.05       9.11      45.63        0.00     1.45   0.154
  s1052                    295.65       0.00       0.09     201.48     139.36      11.23      94.15        0.00     0.41   0.318
  s1053                    295.65       0.00       0.08     224.34     111.36       8.97      45.39        0.00     3.19   0.154
  s1054                    295.65       0.00       0.04      73.60      29.80     192.34     222.14        0.00     1.10   0.751
  s1055                    295.65       0.00       0.04      73.26      29.80     192.73     222.54        0.00     0.56   0.753
  s1056                    295.65       0.00       0.09     201.47     139.36      11.24      94.17        0.00     0.41   0.319
  s1057                    295.65       0.00       0.09     201.47     139.36      11.23      94.16        0.00     0.41   0.318
  s1058                    295.65       0.00       0.09     201.48     139.36      11.23      94.16        0.00     0.41   0.318
  s1059                    295.65       0.00       0.07     226.57     107.36       8.64      43.01        0.01    12.51   0.145
  s106                     295.65       0.00       0.14       0.00     295.33       0.00     295.33        0.01     2.90   0.999
  s1060                    295.65       0.00       0.09     201.48     139.37      11.23      94.16        0.00     0.41   0.318
  s1061                    295.65       0.00       0.08     216.52     123.78       9.97      56.18        0.00     0.92   0.190
  s1062                    295.65       0.00       0.05      74.03      29.80     191.89     221.69        0.01     3.29   0.750
  s1063                    295.65       0.00       0.08     216.52     123.78       9.97      56.17        0.00     0.92   0.190
  s1064                    295.65       0.00       0.05      73.92      29.80     192.00     221.81        0.01     2.20   0.750
  s1065                    295.65       0.00       0.05      74.10      29.80     191.81     221.62        0.01     2.75   0.750
  s1066                    295.65       0.00       0.05      74.10      29.80     191.81     221.62        0.01     2.75   0.750
  s1067                    295.65       0.00       0.09     201.48     139.37      11.23      94.16        0.00     0.41   0.318
  s1068                    295.65       0.00       0.07     226.32     107.77       8.67      43.23        0.01    13.11   0.146
  s1069                    295.65       0.00       0.08     216.52     123.78       9.97      56.18        0.00     0.92   0.190
  s107                     295.65       0.00       0.14       0.00     295.41       0.00     295.41        0.00     1.16   0.999
  s1070                    295.65       0.00       0.05      74.10      29.80     191.81     221.62        0.01     2.75   0.750
  s1071                    295.65       0.00       0.07     226.45     107.58       8.66      43.13        0.00     5.12   0.146
  s1072                    295.65       0.00       0.05      74.26      29.80     191.64     221.45        0.01     3.28   0.749
  s1073                    295.65       0.00       0.08     216.52     123.77       9.97      56.17        0.00     0.92   0.190
  s1074                    295.65       0.00       0.05      74.26      29.80     191.64     221.45        0.01     3.28   0.749
  s1075                    295.65       0.00       0.08     216.52     123.77       9.97      56.17        0.00     0.92   0.190
  s1076                    295.65       0.00       0.05      74.26      29.80     191.64     221.45        0.01     3.28   0.749
  s1077                    295.65       0.00       0.05      74.26      29.80     191.64     221.45        0.01     3.28   0.749
  s1078                    295.65       0.00       0.05      74.31      29.80     191.59     221.39        0.01     4.37   0.749
  s1079                    295.65      60.80       0.09      79.86      35.92     240.61     276.52        0.58   175.49   0.776
  s108                     295.65       0.00       0.14       0.00     295.31       0.00     295.31        0.01     4.05   0.999
  s1080                    295.65       0.00       0.04      73.53      29.80     192.44     222.24        0.00     0.56   0.752
  s1081                    295.65       0.00       0.05      74.31      29.80     191.59     221.39        0.00     1.09   0.749
  s1082                    295.65       0.00       0.05      74.26      29.52     191.92     221.44        0.01     2.20   0.749
  s1083                    295.65      37.02       0.05      74.91      33.21     224.56     257.77        0.02     7.64   0.775
  s1084                    295.65       0.00       0.05      74.01      29.53     192.19     221.72        0.00     1.65   0.750
  s1085                    295.65     126.80       0.05      74.23      42.21     306.10     348.31        0.02     6.06   0.825
  s1086                    295.65       0.00       0.04      73.56      29.55     192.66     222.21        0.00     0.56   0.752
  s1087                    295.65       0.00       0.04      73.58      29.55     192.65     222.20        0.00     0.56   0.752
  s1088                    295.65      37.29       0.05      74.03      33.26     225.72     258.99        0.01     3.86   0.778
  s1089                    295.65       0.00       0.04      73.76      29.54     192.45     222.00        0.00     1.65   0.751
  s109                     295.65       0.00       0.14       0.00     295.30       0.00     295.30        0.02     5.20   0.999
  s1090                    295.65       0.00       0.04      73.78      29.65     192.43     222.08        0.00     1.65   0.751
  s1091                    295.65       0.00       0.04      73.82      29.54     192.39     221.93        0.00     1.65   0.751
  s1092                    295.65      56.03       0.05      74.10      35.14     242.52     277.66        0.01     2.76   0.790
  s1093                    295.65       0.00       0.06      76.30      29.50     189.80     219.29        0.00     0.51   0.742
  s1094                    295.65       0.00       0.07      77.02      29.50     189.06     218.56        0.00     0.97   0.739
  s1095                    295.65       0.00       0.07      77.02      29.50     189.06     218.56        0.00     0.97   0.739
  s1096                    295.65       0.00       0.07      77.51      29.50     188.56     218.06        0.00     1.41   0.738
  s1097                    295.65       0.00       0.07      77.51      29.50     188.56     218.06        0.00     1.41   0.738
  s1098                    295.65       0.00       0.04      73.60      29.80     192.34     222.14        0.00     1.10   0.751
  s1099                    295.65       0.00       0.07      77.51      29.50     188.56     218.06        0.00     1.41   0.738
  s11                      295.65       0.00       0.08     216.48     123.74       9.94      56.14        0.00     0.92   0.190
  s110                     295.65       0.00       0.14       0.00     295.30       0.00     295.30        0.03     8.10   0.999
  s1100                    295.65      74.79       0.04      73.55      37.34     259.65     296.99        0.01     2.20   0.802
  s1101                    295.65       0.00       0.07      77.51      29.50     188.56     218.06        0.00     1.41   0.738
  s1102                    295.65       0.00       0.07      77.51      29.50     188.56     218.06        0.00     1.41   0.738
  s1103                    295.65       0.00       0.07      77.02      29.50     189.06     218.56        0.00     0.97   0.739
  s1104                    295.65       0.00       0.04      73.77      29.80     192.16     221.97        0.00     0.55   0.751
  s1105                    295.65      37.06       0.05      74.38      33.23     225.15     258.37        0.02     7.70   0.777
  s1106                    295.65       0.00       0.04      73.68      29.55     192.54     222.09        0.00     0.56   0.751
  s1107                    295.65       0.00       0.04      73.76      29.54     192.45     221.99        0.00     0.56   0.751
  s1108                    295.65       0.00       0.04      73.41      29.80     192.56     222.36        0.00     0.56   0.752
  s1109                    295.65       0.00       0.04      73.41      29.80     192.55     222.36        0.00     1.10   0.752
  s111                     295.65       0.00       0.14       0.00     295.33       0.00     295.33        0.01     1.73   0.999
  s1110                    295.65       0.00       0.08     220.94     117.19       9.41      48.76        0.00     0.59   0.165
  s1111                    295.65       0.00       0.12      45.96     248.73       0.00     249.69        0.00     0.53   0.845
  s1112                    295.65       0.00       0.12      45.96     248.69       0.00     249.66        0.00     0.53   0.844
  s1113                    295.65      23.73       0.11      57.91     260.22       0.00     261.44        0.01     2.45   0.819
  s1114                    295.65       0.00       0.09     201.48     139.41      11.20      94.15        0.00     0.41   0.318
  s1115                    295.65      60.11       0.11      57.72     296.52       0.00     297.74        0.23   103.91   0.837
  s1116                    295.65       0.00       0.08     222.49     114.24       9.18      46.29        0.00     2.04   0.157
  s1117                    295.65       0.00       0.08     216.58     123.92       9.95      56.21        0.00     0.92   0.190
  s1118                    295.65       0.00       0.08     216.53     123.83       9.95      56.18        0.00     0.92   0.190
  s1119                    295.65       0.00       0.08     220.88     117.11       9.41      48.74        0.00     0.59   0.165
  s112                     295.65       0.00       0.14       0.00     295.47       0.00     295.47        0.00     0.58   0.999
  s1120                    295.65       0.00       0.09     201.48     139.41      11.20      94.16        0.00     0.41   0.318
  s1121                    295.65       0.00       0.07     227.14     106.46       8.55      42.51        0.00     2.27   0.144
  s1122                    295.65      29.87       0.08     238.45     134.19      11.58      56.69        0.02    19.34   0.174
  s1123                    295.65       0.00       0.08     216.53     123.82       9.94      56.17        0.00     0.92   0.190
  s1124                    295.65       0.00       0.08     224.34     111.40       8.94      45.37        0.00     3.19   0.153
  s1125                    295.65       0.00       0.08     220.88     117.11       9.41      48.74        0.00     0.59   0.165
  s1126                    295.65       0.00       0.08     222.49     114.23       9.17      46.28        0.00     2.04   0.157
  s1127                    295.65       0.00       0.08     222.49     114.23       9.17      46.28        0.00     2.04   0.157
  s1128                    295.65      58.05       0.10     247.48     161.26      14.53      71.23        0.01     4.81   0.201
  s1129                    295.65       0.00       0.12      45.96     248.72       0.00     249.69        0.00     0.53   0.845
  s113                     295.65       0.00       0.14       0.00     295.31       0.00     295.31        0.01     2.90   0.999
  s1130                    295.65       0.00       0.12      45.96     248.72       0.00     249.69        0.00     0.53   0.845
  s1131                    295.65       0.00       0.08     220.85     117.07       9.41      48.74        0.00     1.18   0.165
  s1132                    295.65       0.00       0.12      45.96     248.72       0.00     249.68        0.00     0.53   0.845
  s1133                    295.65     168.23       0.14     264.68     275.21      26.75     169.36        0.00     2.20   0.365
  s1134                    295.65       0.00       0.09     201.48     139.39      11.22      94.16        0.00     0.41   0.318
  s1135                    295.65       0.00       0.08     222.47     114.19       9.18      46.28        0.00     2.04   0.157
  s1136                    295.65       0.00       0.12      45.96     248.72       0.00     249.69        0.00     0.53   0.845
  s1137                    295.65       0.00       0.12      45.96     248.71       0.00     249.67        0.00     0.53   0.844
  s1138                    295.65       0.00       0.12      45.96     248.72       0.00     249.69        0.00     0.53   0.845
  s1139                    295.65       0.00       0.12      45.96     248.72       0.00     249.69        0.00     0.53   0.845
  s114                     295.65       0.00       0.14       0.00     295.41       0.00     295.41        0.00     0.58   0.999
  s1140                    295.65       0.00       0.12      45.96     248.72       0.00     249.69        0.00     0.53   0.845
  s1141                    295.65       0.00       0.12      45.96     248.71       0.00     249.68        0.00     0.53   0.845
  s1142                    295.65       0.00       0.12      45.96     248.79       0.00     249.76        0.00     0.53   0.845
  s1143                    295.65       0.00       0.12      45.96     248.71       0.00     249.68        0.00     0.53   0.845
  s1144                    295.65       0.00       0.12      45.96     248.68       0.00     249.65        0.00     0.53   0.844
  s1145                    295.65     130.08       0.11      57.66     366.59       0.00     367.80        0.22    90.82   0.864
  s1146                    295.65       0.00       0.09     201.48     139.42      11.20      94.16        0.00     0.41   0.318
  s1147                    295.65       0.00       0.08     223.10     113.09       9.08      45.61        0.00     1.45   0.154
  s1148                    295.65       0.00       0.09     201.48     139.41      11.20      94.16        0.00     0.41   0.318
  s1149                    295.65       0.00       0.08     216.50     123.77       9.95      56.15        0.00     0.92   0.190
  s115                     295.65       0.00       0.14       0.00     295.45       0.00     295.45        0.00     0.58   0.999
  s1150                    295.65       0.00       0.08     216.52     123.81       9.94      56.16        0.00     0.92   0.190
  s1151                    295.65       0.00       0.09     201.48     139.42      11.20      94.16        0.00     0.41   0.318
  s1152                    295.65       0.00       0.09     201.48     139.42      11.20      94.16        0.00     0.41   0.318
  s1153                    295.65       0.00       0.07     225.58     108.98       8.74      43.68        0.00     3.71   0.148
  s1154                    295.65       0.00       0.08     223.10     113.09       9.08      45.61        0.00     1.45   0.154
  s1155                    295.65       0.00       0.09     201.48     139.41      11.20      94.16        0.00     0.41   0.318
  s1156                    295.65       0.00       0.07     227.13     106.45       8.55      42.51        0.00     2.27   0.144
  s1157                    295.65       0.00       0.09     201.48     139.42      11.20      94.16        0.00     0.41   0.318
  s1158                    295.65       0.00       0.07     226.16     108.12       8.67      43.38        0.01    10.84   0.147
  s1159                    295.65    7601.41       0.14     242.79    6982.04     769.13    7633.93        0.05    17.37   0.967
  s116                     295.65       0.00       0.08     220.78     116.97       9.34      48.60        0.00     1.77   0.164
  s1160                    295.65      56.12       0.12      46.45     304.11       0.00     305.09        0.01     2.48   0.867
  s1161                    295.65       3.39       0.11      57.91     239.84       0.00     241.06        0.04    14.67   0.806
  s1162                    295.65       0.00       0.08     216.53     123.83       9.95      56.18        0.00     0.92   0.190
  s1163                    295.65       0.00       0.08     220.86     117.07       9.41      48.74        0.00     1.77   0.165
  s1164                    295.65       0.00       0.08     223.08     113.06       9.09      45.61        0.00     1.45   0.154
  s1165                    295.65       0.00       0.09     201.47     139.28      11.16      94.04        0.00     0.41   0.318
  s1166                    295.65       0.00       0.09     201.48     139.39      11.22      94.16        0.00     0.41   0.318
  s1167                    295.65      38.46       0.11      57.86     274.76       0.00     275.98        0.36   153.12   0.826
  s1168                    295.65       0.00       0.09     201.48     139.41      11.21      94.16        0.00     0.41   0.318
  s1169                    295.65       0.00       0.07     225.08     109.98       8.82      44.32        0.00     3.45   0.150
  s117                     295.65       0.00       0.12      45.96     248.57       0.00     249.54        0.00     0.53   0.844
  s1170                    295.65       0.00       0.09     201.48     139.41      11.20      94.16        0.00     0.41   0.318
  s1171                    295.65       0.00       0.08     220.87     117.10       9.40      48.73        0.00     1.77   0.165
  s1172                    295.65       0.00       0.09     201.48     139.41      11.20      94.15        0.00     0.41   0.318
  s1173                    295.65       0.00       0.08     220.88     117.11       9.41      48.74        0.00     0.59   0.165
  s1174                    295.65       0.00       0.07     226.14     108.12       8.68      43.33        0.01     8.83   0.147
  s1175                    295.65       0.00       0.08     216.53     123.83       9.95      56.18        0.00     0.92   0.190
  s1176                    295.65       0.00       0.09     201.48     139.36      11.24      94.16        0.00     0.41   0.318
  s1177                    295.65       0.00       0.08     223.10     113.08       9.08      45.60        0.00     1.45   0.154
  s1178                    295.65       0.00       0.08     223.10     113.09       9.08      45.61        0.00     1.45   0.154
  s1179                    295.65       0.00       0.09     201.48     139.41      11.20      94.16        0.00     0.41   0.318
  s118                     295.65       0.00       0.11      57.20     237.17       0.00     238.37        0.03     8.67   0.806
  s1180                    295.65       0.00       0.08     216.52     123.78       9.97      56.18        0.00     0.92   0.190
  s1181                    295.65       0.00       0.08     216.53     123.82       9.94      56.17        0.00     0.92   0.190
  s1182                    295.65       0.00       0.08     222.48     114.19       9.20      46.30        0.00     2.04   0.157
  s1183                    295.65       0.00       0.07     227.13     106.41       8.57      42.52        0.00     2.27   0.144
  s1184                    295.65       0.00       0.08     216.53     123.82       9.94      56.17        0.00     0.92   0.190
  s1185                    295.65       0.00       0.07     225.91     108.58       8.72      43.63        0.00     2.86   0.148
  s1186                    295.65       0.00       0.08     223.10     113.09       9.08      45.61        0.00     1.45   0.154
  s1187                    295.65       0.00       0.08     223.10     113.09       9.08      45.61        0.00     1.45   0.154
  s1188                    295.65       0.00       0.08     220.88     117.10       9.40      48.74        0.00     1.18   0.165
  s1189                    295.65       0.00       0.09     201.48     139.37      11.23      94.16        0.00     0.41   0.318
  s119                     295.65       0.00       0.11      57.91     236.40       0.00     237.62        0.02     6.11   0.804
  s1190                    295.65       0.00       0.09     201.47     139.37      11.23      94.16        0.00     0.41   0.318
  s1191                    295.65       0.00       0.08     223.10     113.05       9.11      45.62        0.00     1.45   0.154
  s1192                    295.65       0.00       0.09     201.48     139.37      11.23      94.16        0.00     0.41   0.318
  s1193                    295.65       0.00       0.09     201.48     139.37      11.24      94.17        0.00     0.41   0.319
  s1194                    295.65       0.00       0.09     201.48     139.41      11.20      94.16        0.00     0.41   0.318
  s1195                    295.65       0.00       0.08     216.53     123.82       9.95      56.18        0.00     0.92   0.190
  s1196                    295.65       0.00       0.09     201.48     139.36      11.23      94.16        0.00     0.41   0.318
  s1197                    295.65       0.00       0.09     201.48     139.41      11.20      94.16        0.00     0.41   0.318
  s1198                    295.65       0.00       0.08     224.49     111.00       8.91      44.85        0.00     4.04   0.152
  s1199                    295.65       0.00       0.09     201.48     139.37      11.23      94.16        0.00     0.41   0.318
  s12                      295.65       0.00       0.08     216.47     123.74       9.94      56.14        0.00     0.92   0.190
  s120                     295.65     542.00       0.11      56.80     779.56       0.00     780.76        0.15    48.72   0.932
  s1200                    295.65       0.00       0.09     201.48     139.37      11.23      94.16        0.00     0.41   0.318
  s1201                    295.65       0.00       0.09     201.48     139.37      11.23      94.16        0.00     0.41   0.318
  s1202                    295.65       0.00       0.09     201.48     139.37      11.23      94.16        0.00     0.41   0.318
  s1203                    295.65       0.00       0.09     201.48     139.36      11.23      94.15        0.00     0.41   0.318
  s1204                    295.65      94.16       0.12     229.18     224.12      20.60     160.56        0.00     0.83   0.412
  s1205                    295.65       0.00       0.09     201.48     139.36      11.23      94.16        0.00     0.41   0.318
  s1206                    295.65       0.00       0.09     201.48     139.37      11.23      94.16        0.00     0.41   0.318
  s1207                    295.65       0.00       0.07     225.28     109.80       8.75      44.29        0.00     2.59   0.150
  s1208                    295.65      65.22       0.09     244.54     167.24      14.77      78.50        0.01    12.04   0.218
  s1209                    295.65      73.09       0.11     243.47     182.74      16.34      89.74        0.00     2.41   0.243
  s121                     295.65     345.59       0.14       0.00     640.89       0.00     640.89        0.02     6.31   0.999
  s1210                    295.65      73.09       0.11     243.47     182.74      16.34      89.74        0.00     2.41   0.243
  s1211                    295.65      41.96       0.10     234.05     154.73      13.38      70.16        0.00     1.84   0.208
  s1212                    295.65     124.78       0.13     258.39     229.26      21.36     125.88        0.00     4.54   0.299
  s1213                    295.65       0.00       0.08     220.88     117.13       9.41      48.76        0.00     1.77   0.165
  s1214                    295.65       0.00       0.08     220.88     117.13       9.41      48.76        0.00     1.77   0.165
  s1215                    295.65       0.00       0.08     216.50     123.77       9.95      56.15        0.00     0.92   0.190
  s1216                    295.65       0.00       0.08     224.32     111.37       8.95      45.37        0.00     3.19   0.153
  s1217                    295.65       0.00       0.11      57.20     237.19       0.00     238.39        0.03     8.67   0.806
  s1218                    295.65      15.19       0.11      57.46     252.08       0.00     253.29        0.04    14.39   0.815
  s1219                    295.65       0.00       0.09     201.47     139.38      11.21      94.15        0.00     0.41   0.318
  s122                     295.65       0.00       0.14       0.00     295.28       0.00     295.28        0.08    24.30   0.999
  s1220                    295.65       0.00       0.09     201.47     139.37      11.21      94.14        0.00     0.41   0.318
  s1221                    295.65       0.00       0.09     201.47     139.37      11.21      94.14        0.00     0.41   0.318
  s1222                    295.65       0.00       0.09     201.47     139.38      11.21      94.15        0.00     0.41   0.318
  s1223                    295.65      11.78       0.11      56.06     250.13       0.00     251.31        0.03    10.27   0.817
  s1224                    295.65       0.00       0.04      73.54      29.55     192.68     222.23        0.00     0.56   0.752
  s1225                    295.65       0.00       0.11      55.59     238.80       0.00     239.97        0.01     5.12   0.812
  s1226                    295.65       0.00       0.07     226.62     107.21       8.62      42.93        0.01     7.39   0.145
  s1227                    295.65       0.00       0.12      45.96     248.57       0.00     249.54        0.00     0.53   0.844
  s1228                    295.65     149.08       0.11      56.98     386.31       0.00     387.51        0.03    17.48   0.871
  s1229                    295.65       0.00       0.12      45.96     248.66       0.00     249.63        0.00     0.53   0.844
  s123                     295.65       0.00       0.14       0.00     295.43       0.00     295.43        0.00     1.16   0.999
  s1230                    295.65       0.00       0.09     201.47     139.38      11.21      94.14        0.00     0.41   0.318
  s1231                    295.65       0.00       0.09     201.47     139.39      11.21      94.15        0.00     0.41   0.318
  s1232                    295.65       0.00       0.08     222.46     114.19       9.18      46.27        0.00     2.04   0.157
  s1233                    295.65       0.00       0.07     225.23     109.82       8.83      44.44        0.00     2.59   0.150
  s1234                    295.65       0.00       0.09     201.47     139.39      11.21      94.15        0.00     0.41   0.318
  s1235                    295.65       0.00       0.09     201.48     139.39      11.21      94.15        0.00     0.41   0.318
  s1236                    295.65       0.00       0.08     223.08     113.05       9.09      45.61        0.00     1.45   0.154
  s1237                    295.65       0.00       0.09     201.48     139.39      11.21      94.16        0.00     0.41   0.318
  s1238                    295.65       0.00       0.08     223.08     113.06       9.09      45.61        0.00     1.45   0.154
  s1239                    295.65       0.00       0.09     201.48     139.39      11.22      94.16        0.00     0.41   0.318
  s124                     295.65    1467.30       0.12      45.96    1716.01       0.00    1716.97        0.01     3.42   0.974
  s1240                    295.65       0.00       0.09     201.48     139.39      11.22      94.16        0.00     0.41   0.318
  s1241                    295.65       0.00       0.09     201.48     139.39      11.21      94.16        0.00     0.41   0.318
  s1242                    295.65       5.93       0.11      57.91     242.37       0.00     243.59        0.02     8.56   0.808
  s1243                    295.65       0.00       0.09     201.47     139.38      11.21      94.15        0.00     0.41   0.318
  s1244                    295.65       0.00       0.08     220.79     116.98       9.35      48.62        0.00     1.18   0.164
  s1245                    295.65       0.00       0.12      52.89     241.41       0.00     242.52        0.01     3.60   0.820
  s1246                    295.65      41.91       0.11      57.91     277.91       0.00     279.13        0.01     2.90   0.827
  s1247                    295.65       0.00       0.12      46.33     248.16       0.00     249.14        0.00     1.05   0.843
  s1248                    295.65       0.00       0.09     216.48     123.76       9.89      56.08        0.00     0.92   0.190
  s1249                    295.65       0.00       0.08     220.78     116.97       9.34      48.60        0.00     1.77   0.164
  s125                     295.65       0.00       0.14       0.00     295.41       0.00     295.41        0.00     0.58   0.999
  s1250                    295.65       0.00       0.12      45.96     248.57       0.00     249.54        0.00     0.53   0.844
  s1251                    295.65       0.00       0.12      46.33     248.16       0.00     249.14        0.00     1.05   0.843
  s1252                    295.65       0.00       0.12      46.33     248.16       0.00     249.14        0.00     1.05   0.843
  s1253                    295.65       0.00       0.11      57.91     236.44       0.00     237.66        0.02     8.14   0.804
  s1254                    295.65       0.00       0.11      56.67     237.70       0.00     238.90        0.01     4.59   0.808
  s1255                    295.65       0.00       0.08     220.88     117.10       9.40      48.74        0.00     1.77   0.165
  s1256                    295.65       0.00       0.08     224.50     111.02       8.91      44.86        0.00     4.04   0.152
  s1257                    295.65       0.00       0.07     225.91     108.58       8.72      43.63        0.01     5.71   0.148
  s1258                    295.65      38.62       0.11      57.91     274.90       0.00     276.12        0.03    11.95   0.826
  s1259                    295.65       0.00       0.09     201.49     139.28      11.16      94.05        0.00     0.41   0.318
  s126                     295.65       0.00       0.14       0.00     295.39       0.00     295.39        0.00     0.58   0.999
  s1260                    295.65       0.00       0.09     201.49     139.28      11.16      94.05        0.00     0.41   0.318
  s1261                    295.65       0.00       0.09     201.49     139.28      11.16      94.05        0.00     0.41   0.318
  s1262                    295.65       0.00       0.08     220.87     117.10       9.40      48.73        0.00     1.77   0.165
  s1263                    295.65       0.00       0.08     223.10     113.09       9.08      45.61        0.00     1.45   0.154
  s1264                    295.65       0.00       0.08     220.84     117.06       9.36      48.72        0.00     0.59   0.165
  s1265                    295.65       0.00       0.05      78.95      14.83     201.92     216.75        0.01     4.35   0.733
  s1266                    295.65       0.00       0.12      46.33     248.34       0.00     249.32        0.00     1.05   0.843
  s1267                    295.65       0.00       0.12      45.96     248.73       0.00     249.70        0.00     0.53   0.845
  s1268                    295.65       0.00       0.12      45.96     248.73       0.00     249.70        0.00     0.53   0.845
  s1269                    295.65       0.00       0.12      45.96     248.73       0.00     249.70        0.00     0.53   0.845
  s127                     295.65       0.00       0.14       0.00     295.33       0.00     295.33        0.01     2.90   0.999
  s1270                    295.65     109.77       0.12      46.33     358.11       0.00     359.09        0.00     1.60   0.886
  s1271                    295.65       0.00       0.04      77.97      14.83     202.97     217.80        0.00     0.55   0.737
  s1272                    295.65      33.75       0.11      56.98     271.14       0.00     272.34        0.02     7.74   0.827
  s1273                    295.65       0.00       0.04      78.03      14.83     202.91     217.74        0.00     0.55   0.736
  s1274                    295.65       0.00       0.04      77.95      14.82     202.99     217.81        0.00     0.55   0.737
  s1275                    295.65       0.00       0.08     220.83     117.03       9.41      48.72        0.00     1.77   0.165
  s1276                    295.65       0.00       0.11      54.05     240.38       0.00     241.52        0.01     3.08   0.817
  s1277                    295.65    3832.34       0.11      54.05    4072.45       0.00    4073.59        0.15    59.91   0.987
  s1278                    295.65       0.00       0.12      45.96     248.68       0.00     249.65        0.00     0.53   0.844
  s1279                    295.65    1404.58       0.14     286.73    1372.58     148.87    1352.07        0.14    58.72   0.795
  s128                     295.65       0.00       0.11      56.26     238.13       0.00     239.31        0.02     7.15   0.809
  s1280                    295.65      58.61       0.07      81.25      17.76     255.23     272.99        0.15    52.56   0.771
  s1281                    295.65       0.00       0.04      78.20      14.83     202.72     217.54        0.00     1.10   0.736
  s1282                    295.65       0.00       0.12      45.96     248.73       0.00     249.70        0.00     0.53   0.845
  s1283                    295.65       0.00       0.04      78.41      14.79     202.54     217.32        0.00     1.64   0.735
  s1284                    295.65     241.28       0.05      79.77      26.86     430.37     457.22        0.03    10.09   0.852
  s1285                    295.65       0.00       0.04      78.39      14.83     202.51     217.34        0.00     1.10   0.735
  s1286                    295.65       0.00       0.04      78.07      14.79     202.91     217.69        0.00     0.55   0.736
  s1287                    295.65      31.23       0.05      79.36      16.39     231.17     247.56        0.01     4.31   0.757
  s1288                    295.65       0.00       0.04      78.58      14.79     202.35     217.14        0.00     0.55   0.734
  s1289                    295.65     184.23       0.11      56.80     421.48       0.00     422.68        0.08    46.73   0.881
  s129                     295.65       0.00       0.14       0.00     295.28       0.00     295.28        0.01     4.05   0.999
  s1290                    295.65       0.00       0.09     201.47     139.28      11.16      94.04        0.00     0.41   0.318
  s1291                    295.65       0.00       0.07     226.26     107.76       8.64      43.13        0.01    11.10   0.146
  s1292                    295.65       0.00       0.08     216.47     123.73       9.94      56.13        0.00     0.92   0.190
  s1293                    295.65       0.00       0.08     216.47     123.73       9.94      56.13        0.00     0.92   0.190
  s1294                    295.65      31.46       0.08     239.57     134.69      11.68      56.85        0.00     2.63   0.174
  s1295                    295.65     193.45       0.14     282.93     282.60      27.97     157.27        0.02    15.79   0.322
  s1296                    295.65       0.00       0.12      45.96     248.72       0.00     249.69        0.00     0.53   0.845
  s1297                    295.65     309.35       0.12      52.89     550.97       0.00     552.08        0.02     8.96   0.913
  s1298                    295.65       0.00       0.05      79.02      14.83     201.85     216.68        0.01     4.87   0.733
  s1299                    295.65       0.00       0.04      77.94      14.83     203.00     217.83        0.00     0.55   0.737
  s13                      295.65       0.00       0.08     220.84     117.04       9.41      48.72        0.00     0.59   0.165
  s130                     295.65       0.00       0.12      45.96     248.68       0.00     249.65        0.00     0.53   0.844
  s1300                    295.65      23.15       0.11      57.91     259.29       0.00     260.51        0.33   126.56   0.817
  s1301                    295.65       0.00       0.07     225.55     108.92       8.74      43.67        0.00     3.71   0.148
  s1302                    295.65    1792.29       0.14     276.28    1729.49     187.59    1713.93        0.06    46.37   0.821
  s1303                    295.65       0.00       0.09     201.47     139.28      11.16      94.04        0.00     0.41   0.318
  s1304                    295.65       0.00       0.12      45.96     248.57       0.00     249.54        0.00     0.53   0.844
  s1305                    295.65       0.00       0.12      46.33     248.16       0.00     249.14        0.00     1.05   0.843
  s1306                    295.65    3097.30       0.12      46.45    3344.97       0.00    3345.95        0.06    45.22   0.986
  s1307                    295.65       0.00       0.08     220.84     117.04       9.41      48.73        0.00     0.59   0.165
  s1308                    295.65     159.17       0.13     282.47     250.54      24.47     129.74        0.06    43.50   0.285
  s1309                    295.65       0.00       0.09     201.47     139.38      11.21      94.14        0.00     0.41   0.318
  s131                     295.65       0.00       0.12      45.96     248.71       0.00     249.68        0.00     0.53   0.845
  s1310                    295.65       0.00       0.08     220.80     116.99       9.36      48.65        0.00     0.59   0.165
  s1311                    295.65       0.00       0.09     201.47     139.28      11.16      94.04        0.00     0.41   0.318
  s1312                    295.65       0.00       0.08     220.79     116.98       9.35      48.62        0.00     1.18   0.164
  s1313                    295.65       0.00       0.08     220.80     116.99       9.36      48.65        0.00     0.59   0.165
  s1314                    295.65       0.00       0.09     201.47     139.28      11.16      94.04        0.00     0.41   0.318
  s1315                    295.65       0.00       0.08     216.47     123.74       9.94      56.14        0.00     0.92   0.190
  s1316                    295.65       0.00       0.09     201.47     139.38      11.21      94.14        0.00     0.41   0.318
  s1317                    295.65       0.00       0.08     223.06     113.00       9.08      45.57        0.00     1.45   0.154
  s1318                    295.65       0.00       0.08     220.84     117.04       9.41      48.73        0.00     0.59   0.165
  s1319                    295.65       0.00       0.07     227.09     106.37       8.54      42.46        0.00     2.27   0.144
  s132                     295.65       0.00       0.12      45.96     248.72       0.00     249.68        0.00     0.53   0.845
  s1320                    295.65       0.00       0.08     216.47     123.74       9.94      56.14        0.00     0.92   0.190
  s1321                    295.65       0.00       0.07     226.43     107.52       8.59      42.96        0.00     5.12   0.145
  s1322                    295.65       0.00       0.08     220.82     117.01       9.40      48.70        0.00     1.18   0.165
  s1323                    295.65       0.00       0.08     223.06     113.00       9.07      45.56        0.00     1.45   0.154
  s1324                    295.65       0.00       0.08     220.84     117.04       9.41      48.72        0.00     0.59   0.165
  s1325                    295.65       0.00       0.08     216.49     123.75       9.95      56.14        0.00     0.92   0.190
  s1326                    295.65       0.00       0.08     216.49     123.75       9.95      56.14        0.00     0.92   0.190
  s1327                    295.65       0.00       0.08     216.49     123.76       9.95      56.15        0.00     0.92   0.190
  s1328                    295.65       0.00       0.09     201.47     139.38      11.21      94.15        0.00     0.41   0.318
  s1329                    295.65       0.00       0.09     201.47     139.38      11.21      94.15        0.00     0.41   0.318
  s133                     295.65       0.00       0.11      54.71     239.72       0.00     240.87        0.02     5.65   0.815
  s1330                    295.65     173.71       0.11      55.62     412.47       0.00     413.65        0.04    14.09   0.881
  s1331                    295.65     135.80       0.11      57.91     372.25       0.00     373.47        0.02     6.77   0.866
  s1332                    295.65       0.00       0.12      52.89     241.61       0.00     242.72        0.01     3.61   0.821
  s1333                    295.65       0.00       0.09     201.47     139.38      11.21      94.15        0.00     0.41   0.318
  s1334                    295.65       0.00       0.12      45.96     248.73       0.00     249.70        0.00     0.53   0.845
  s1335                    295.65       0.00       0.09     201.47     139.37      11.21      94.14        0.00     0.41   0.318
  s1336                    295.65       0.00       0.09     201.46     139.33      11.20      94.11        0.00     0.41   0.318
  s1337                    295.65       0.00       0.09     201.46     139.36      11.20      94.13        0.00     0.41   0.318
  s1338                    295.65       0.00       0.08     220.85     117.05       9.41      48.73        0.00     0.59   0.165
  s1339                    295.65       0.00       0.08     220.80     116.99       9.36      48.65        0.00     0.59   0.165
  s134                     295.65       0.00       0.11      57.91     236.54       0.00     237.76        0.01     4.07   0.804
  s1340                    295.65       0.00       0.08     223.06     112.99       9.06      45.54        0.00     1.45   0.154
  s1341                    295.65       0.00       0.09     216.43     123.69       9.89      56.03        0.00     0.92   0.190
  s1342                    295.65       0.00       0.05      78.78      14.83     202.10     216.93        0.01     2.73   0.734
  s1343                    295.65       0.00       0.05      79.05      14.83     201.81     216.64        0.01     5.96   0.733
  s1344                    295.65       0.00       0.04      78.07      14.83     202.87     217.69        0.00     0.55   0.736
  s1345                    295.65      96.73       0.11      56.38     334.54       0.00     335.73        0.05    25.55   0.856
  s1346                    295.65       0.00       0.09     201.47     139.38      11.21      94.15        0.00     0.41   0.318
  s1347                    295.65       0.00       0.08     220.86     117.06       9.39      48.71        0.00     1.77   0.165
  s1348                    295.65       0.00       0.07     225.91     108.57       8.72      43.63        0.00     2.86   0.148
  s1349                    295.65       0.00       0.09     201.48     139.40      11.21      94.16        0.00     0.41   0.318
  s135                     295.65       0.00       0.14       0.00     295.43       0.00     295.43        0.00     0.58   0.999
  s1350                    295.65       0.00       0.08     222.43     114.14       9.16      46.23        0.00     2.04   0.156
  s1351                    295.65       0.00       0.07     225.04     109.80       8.78      44.06        0.00     4.29   0.149
  s1352                    295.65       0.00       0.08     222.43     114.14       9.16      46.23        0.00     2.04   0.156
  s1353                    295.65      36.39       0.11      57.91     272.64       0.00     273.86        0.05    19.85   0.825
  s1354                    295.65       0.00       0.08     223.06     113.01       9.08      45.58        0.00     1.45   0.154
  s1355                    295.65       0.00       0.09     201.47     139.39      11.21      94.15        0.00     0.41   0.318
  s1356                    295.65       0.00       0.08     220.86     117.07       9.41      48.74        0.00     0.59   0.165
  s1357                    295.65       0.00       0.09     201.48     139.39      11.21      94.15        0.00     0.41   0.318
  s1358                    295.65       0.00       0.08     216.50     123.77       9.95      56.16        0.00     0.92   0.190
  s1359                    295.65       0.00       0.08     216.51     123.78       9.95      56.16        0.00     0.92   0.190
  s136                     295.65       0.00       0.14       0.00     295.43       0.00     295.43        0.00     0.58   0.999
  s1360                    295.65       0.00       0.08     216.50     123.77       9.95      56.15        0.00     0.92   0.190
  s1361                    295.65     117.37       0.11      57.38     354.17       0.00     355.38        0.05    26.16   0.860
  s1362                    295.65       0.00       0.08     224.31     111.34       8.95      45.36        0.00     3.19   0.153
  s1363                    295.65       0.00       0.09     201.47     139.38      11.21      94.14        0.00     0.41   0.318
  s1364                    295.65       0.00       0.09     201.47     139.39      11.21      94.15        0.00     0.41   0.318
  s1365                    295.65       0.00       0.08     216.51     123.78       9.95      56.16        0.00     0.92   0.190
  s1366                    295.65       0.00       0.08     220.85     117.05       9.41      48.73        0.00     1.18   0.165
  s1367                    295.65       0.00       0.07     225.88     108.53       8.72      43.62        0.00     2.86   0.148
  s1368                    295.65       0.00       0.08     223.08     113.04       9.09      45.60        0.00     1.45   0.154
  s1369                    295.65       0.00       0.09     201.47     139.37      11.21      94.14        0.00     0.41   0.318
  s137                     295.65       0.00       0.14       0.00     295.31       0.00     295.31        0.01     2.90   0.999
  s1370                    295.65       0.00       0.09     201.47     139.37      11.21      94.14        0.00     0.41   0.318
  s1371                    295.65       0.00       0.07     227.09     106.38       8.55      42.48        0.01     6.80   0.144
  s1372                    295.65       0.00       0.08     223.07     113.04       9.09      45.60        0.00     1.45   0.154
  s1373                    295.65       0.00       0.08     220.87     117.10       9.40      48.73        0.00     1.77   0.165
  s1374                    295.65       0.00       0.12      45.96     248.69       0.00     249.66        0.00     0.53   0.844
  s1375                    295.65       0.00       0.12      45.96     248.68       0.00     249.65        0.00     0.53   0.844
  s1376                    295.65       0.00       0.12      45.96     248.71       0.00     249.68        0.00     0.53   0.845
  s1377                    295.65       0.00       0.11      57.02     237.09       0.00     238.29        0.04    13.02   0.806
  s1378                    295.65      73.72       0.11      57.52     310.35       0.00     311.56        0.18    64.57   0.843
  s1379                    295.65       0.00       0.08     220.86     117.07       9.38      48.71        0.00     1.77   0.165
  s138                     295.65       0.00       0.11      56.62     237.77       0.00     238.96        0.03     9.19   0.808
  s1380                    295.65       0.00       0.08     220.84     117.06       9.36      48.72        0.00     0.59   0.165
  s1381                    295.65     237.67       0.14     274.58     331.02      33.07     210.98        0.01     3.49   0.396
  s1382                    295.65       0.00       0.09     201.49     139.36      11.15      94.09        0.00     0.41   0.318
  s1383                    295.65    2628.00       0.14     277.23    2482.80     271.58    2594.49        0.03    11.85   0.887
  s1384                    295.65       0.00       0.12      45.96     248.71       0.00     249.68        0.00     0.53   0.845
  s1385                    295.65       0.00       0.08     220.88     117.10       9.40      48.74        0.00     0.59   0.165
  s1386                    295.65       0.00       0.09     201.48     139.41      11.20      94.16        0.00     0.41   0.318
  s1387                    295.65       0.00       0.11      57.91     236.41       0.00     237.63        0.03    10.18   0.804
  s1388                    295.65       0.00       0.12      45.96     248.71       0.00     249.68        0.00     0.53   0.845
  s1389                    295.65       0.00       0.11      57.91     236.45       0.00     237.67        0.01     2.04   0.804
  s139                     295.65      28.06       0.11      57.91     264.52       0.00     265.74        0.03     9.25   0.821
  s1390                    295.65     110.46       0.11      56.67     348.02       0.00     349.21        0.02     9.88   0.860
  s1391                    295.65       0.00       0.09     201.48     139.34      11.22      94.14        0.00     0.41   0.318
  s1392                    295.65       0.00       0.09     201.48     139.35      11.23      94.15        0.00     0.41   0.318
  s1393                    295.65       0.00       0.09     201.48     139.35      11.23      94.15        0.00     0.41   0.318
  s1394                    295.65       0.00       0.08     222.46     114.15       9.18      46.26        0.00     2.04   0.156
  s1395                    295.65       0.00       0.09     201.48     139.36      11.23      94.15        0.00     0.41   0.318
  s1396                    295.65       0.00       0.08     220.85     117.02       9.42      48.73        0.00     1.18   0.165
  s1397                    295.65       0.00       0.09     201.48     139.36      11.23      94.16        0.00     0.41   0.318
  s1398                    295.65       0.00       0.08     222.48     114.19       9.20      46.29        0.00     2.04   0.157
  s1399                    295.65      37.57       0.11      57.82     273.82       0.00     275.04        0.44   179.82   0.825
  s14                      295.65       0.00       0.08     223.06     113.00       9.07      45.56        0.00     1.45   0.154
  s140                     295.65       0.00       0.04      73.13      29.80     192.85     222.65        0.00     0.56   0.753
  s1400                    295.65       0.00       0.12      45.96     248.71       0.00     249.68        0.00     0.53   0.845
  s1401                    295.65      47.46       0.12      46.33     295.78       0.00     296.75        0.00     1.46   0.865
  s1402                    295.65      75.44       0.11      54.05     315.71       0.00     316.85        0.01     5.24   0.854
  s1403                    295.65       0.00       0.12      45.96     248.71       0.00     249.68        0.00     0.53   0.845
  s1404                    295.65       0.00       0.09     201.47     139.37      11.23      94.16        0.00     0.41   0.318
  s1405                    295.65       0.00       0.09     201.48     139.36      11.23      94.15        0.00     0.41   0.318
  s1406                    295.65       0.00       0.08     216.52     123.78       9.97      56.18        0.00     0.92   0.190
  s1407                    295.65       0.00       0.08     216.52     123.77       9.97      56.17        0.00     0.92   0.190
  s1408                    295.65       0.00       0.09     201.47     139.37      11.23      94.16        0.00     0.41   0.318
  s1409                    295.65       0.00       0.09     201.48     139.37      11.23      94.16        0.00     0.41   0.318
  s141                     295.65       0.00       0.04      73.07      29.80     192.89     222.70        0.00     0.56   0.753
  s1410                    295.65       0.00       0.08     224.48     110.94       8.92      44.84        0.00     4.04   0.152
  s1411                    295.65       0.00       0.08     223.08     113.00       9.09      45.59        0.00     1.45   0.154
  s1412                    295.65       0.00       0.09     201.48     139.36      11.23      94.15        0.00     0.41   0.318
  s1413                    295.65       0.00       0.09     201.48     139.37      11.23      94.16        0.00     0.41   0.318
  s1414                    295.65       0.00       0.08     216.52     123.77       9.97      56.17        0.00     0.92   0.190
  s1415                    295.65       0.00       0.08     216.52     123.77       9.97      56.17        0.00     0.92   0.190
  s1416                    295.65       0.00       0.08     220.86     117.04       9.42      48.74        0.00     1.18   0.165
  s1417                    295.65       0.00       0.08     216.52     123.77       9.97      56.17        0.00     0.92   0.190
  s1418                    295.65       0.00       0.08     220.86     117.05       9.43      48.75        0.00     0.59   0.165
  s1419                    295.65       0.00       0.09     201.48     139.36      11.23      94.16        0.00     0.41   0.318
  s142                     295.65      25.24       0.11      57.18     262.36       0.00     263.57        0.08    26.28   0.821
  s1420                    295.65       0.00       0.09     201.49     139.28      11.16      94.05        0.00     0.41   0.318
  s1421                    295.65       0.00       0.08     220.84     116.99       9.37      48.67        0.00     0.59   0.165
  s1422                    295.65       0.00       0.08     220.84     116.99       9.37      48.67        0.00     0.59   0.165
  s1423                    295.65       0.00       0.09     201.48     139.34      11.22      94.13        0.00     0.41   0.318
  s1424                    295.65       0.00       0.09     201.48     139.35      11.23      94.15        0.00     0.41   0.318
  s1425                    295.65       0.00       0.08     220.85     117.02       9.42      48.73        0.00     1.77   0.165
  s1426                    295.65       0.00       0.08     223.09     113.04       9.10      45.61        0.00     1.45   0.154
  s1427                    295.65       0.00       0.08     216.52     123.77       9.97      56.17        0.00     0.92   0.190
  s1428                    295.65       0.00       0.09     201.48     139.36      11.23      94.16        0.00     0.41   0.318
  s1429                    295.65      38.82       0.08     239.52     144.69      12.66      63.27        0.00     3.37   0.189
  s143                     295.65       0.00       0.14       0.00     295.37       0.00     295.37        0.00     0.58   0.999
  s1430                    295.65       0.00       0.08     216.51     123.76       9.97      56.16        0.00     0.92   0.190
  s1431                    295.65       0.00       0.07     225.23     109.78       8.82      44.42        0.00     2.59   0.150
  s1432                    295.65       0.00       0.09     201.48     139.36      11.23      94.15        0.00     0.41   0.318
  s1433                    295.65       0.00       0.09     201.48     139.34      11.22      94.13        0.00     0.41   0.318
  s1434                    295.65       0.00       0.09     201.48     139.35      11.23      94.15        0.00     0.41   0.318
  s1435                    295.65       0.00       0.12      45.96     248.72       0.00     249.68        0.00     0.53   0.845
  s1436                    295.65       0.00       0.08     220.88     117.11       9.41      48.74        0.00     0.59   0.165
  s1437                    295.65       0.00       0.09     216.48     123.70       9.89      56.05        0.00     0.92   0.190
  s1438                    295.65       0.00       0.09     201.49     139.28      11.16      94.05        0.00     0.41   0.318
  s1439                    295.65       0.00       0.09     201.48     139.42      11.20      94.16        0.00     0.41   0.318
  s144                     295.65       0.00       0.14       0.00     295.34       0.00     295.34        0.00     0.58   0.999
  s1440                    295.65       0.00       0.09     201.48     139.41      11.20      94.16        0.00     0.41   0.318
  s1441                    295.65       0.00       0.09     201.49     139.28      11.16      94.05        0.00     0.41   0.318
  s1442                    295.65       0.00       0.09     201.49     139.28      11.16      94.05        0.00     0.41   0.318
  s1443                    295.65       0.00       0.07     223.09     112.97       9.03      45.49        0.00     1.44   0.154
  s1444                    295.65       0.00       0.08     220.85     117.02       9.42      48.73        0.00     0.59   0.165
  s1445                    295.65       0.00       0.09     201.49     139.28      11.16      94.05        0.00     0.41   0.318
  s1446                    295.65       0.00       0.09     201.49     139.28      11.16      94.05        0.00     0.41   0.318
  s1447                    295.65       0.00       0.09     201.49     139.28      11.16      94.05        0.00     0.41   0.318
  s1448                    295.65     244.60       0.14     290.11     326.51      32.72     192.11        0.02    14.31   0.356
  s1449                    295.65       0.00       0.08     220.86     117.07       9.38      48.71        0.00     1.77   0.165
  s145                     295.65       0.00       0.14       0.00     295.28       0.00     295.28        0.00     1.16   0.999
  s1450                    295.65       0.00       0.08     220.84     116.99       9.37      48.67        0.00     0.59   0.165
  s1451                    295.65       0.00       0.08     220.84     116.99       9.37      48.67        0.00     0.59   0.165
  s1452                    295.65      48.69       0.12      46.33     296.61       0.00     297.59        0.00     1.62   0.864
  s1453                    295.65      15.81       0.11      54.05     256.04       0.00     257.18        0.01     3.47   0.826
  s1454                    295.65       0.00       0.11      55.50     238.76       0.00     239.93        0.01     2.56   0.812
  s1455                    295.65       0.00       0.08     220.84     116.99       9.37      48.67        0.00     0.59   0.165
  s1456                    295.65     320.02       0.12      45.96     568.43       0.00     569.40        0.00     2.38   0.925
  s1457                    295.65       0.00       0.08     220.84     117.06       9.36      48.72        0.00     0.59   0.165
  s1458                    295.65       0.00       0.07     223.09     113.03       9.02      45.50        0.00     1.45   0.154
  s1459                    295.65       0.00       0.09     201.49     139.36      11.15      94.09        0.00     0.41   0.318
  s146                     295.65      59.27       0.11      54.71     298.80       0.00     299.96        0.02     9.34   0.845
  s1460                    295.65       0.00       0.09     201.49     139.36      11.15      94.09        0.00     0.41   0.318
  s1461                    295.65      44.86       0.11      57.78     281.15       0.00     282.37        0.32   140.18   0.829
  s1462                    295.65       0.00       0.07     225.24     109.77       8.81      44.40        0.00     2.59   0.150
  s1463                    295.65       0.00       0.07     225.24     109.77       8.81      44.39        0.00     2.59   0.150
  s1464                    295.65       0.00       0.07     227.13     106.35       8.50      42.38        0.00     4.53   0.143
  s1465                    295.65       0.00       0.09     201.49     139.28      11.16      94.05        0.00     0.41   0.318
  s1466                    295.65       0.00       0.09     201.49     139.36      11.15      94.09        0.00     0.41   0.318
  s1467                    295.65       0.00       0.07     224.50     110.97       8.86      44.75        0.00     4.04   0.151
  s1468                    295.65       0.00       0.08     222.47     114.20       9.15      46.24        0.00     2.04   0.156
  s1469                    295.65       0.00       0.09     201.49     139.28      11.16      94.05        0.00     0.41   0.318
  s147                     295.65       0.00       0.09     201.48     139.41      11.20      94.15        0.00     0.41   0.318
  s1470                    295.65       0.00       0.08     222.47     114.20       9.15      46.24        0.00     2.04   0.156
  s1471                    295.65       0.00       0.08     220.86     117.05       9.43      48.75        0.00     1.18   0.165
  s1472                    295.65       0.00       0.09     201.47     139.37      11.23      94.16        0.00     0.41   0.318
  s1473                    295.65       0.00       0.08     223.10     113.05       9.11      45.62        0.00     1.45   0.154
  s1474                    295.65       0.00       0.08     223.10     113.05       9.11      45.62        0.00     1.45   0.154
  s1475                    295.65       0.00       0.09     201.47     139.36      11.23      94.16        0.00     0.41   0.318
  s1476                    295.65       0.00       0.08     220.84     117.06       9.36      48.72        0.00     0.59   0.165
  s1477                    295.65       0.00       0.09     216.48     123.76       9.89      56.08        0.00     0.92   0.190
  s1478                    295.65       0.00       0.09     201.47     139.36      11.23      94.16        0.00     0.41   0.318
  s1479                    295.65       0.00       0.08     220.84     117.00       9.39      48.68        0.00     1.77   0.165
  s148                     295.65       0.00       0.08     216.53     123.82       9.94      56.17        0.00     0.92   0.190
  s1480                    295.65       0.00       0.08     220.84     116.98       9.34      48.61        0.00     1.77   0.164
  s1481                    295.65       0.00       0.07     225.09     109.90       8.79      44.24        0.00     3.45   0.150
  s1482                    295.65       0.00       0.08     216.50     123.74       9.96      56.14        0.00     0.92   0.190
  s1483                    295.65       0.00       0.09     201.48     139.36      11.23      94.16        0.00     0.41   0.318
  s1484                    295.65       0.00       0.08     222.47     114.16       9.18      46.27        0.00     2.04   0.156
  s1485                    295.65       0.00       0.08     220.86     117.05       9.43      48.75        0.00     0.59   0.165
  s1486                    295.65       0.00       0.09     201.48     139.36      11.23      94.15        0.00     0.41   0.318
  s1487                    295.65       0.00       0.08     216.51     123.75       9.96      56.15        0.00     0.92   0.190
  s1488                    295.65       0.00       0.08     220.86     117.05       9.43      48.75        0.00     0.59   0.165
  s1489                    295.65       0.00       0.09     201.48     139.36      11.23      94.16        0.00     0.41   0.318
  s149                     295.65       0.00       0.08     220.87     117.09       9.40      48.73        0.00     1.18   0.165
  s1490                    295.65       0.00       0.09     201.47     139.37      11.23      94.16        0.00     0.41   0.318
  s1491                    295.65       0.00       0.08     220.87     117.07       9.43      48.75        0.00     0.59   0.165
  s1492                    295.65       0.00       0.08     220.87     117.06       9.43      48.75        0.00     1.18   0.165
  s1493                    295.65      16.79       0.08     231.81     124.95      10.51      51.80        0.00     4.66   0.166
  s1494                    295.65       0.00       0.09     201.48     139.35      11.23      94.15        0.00     0.41   0.318
  s1495                    295.65       0.00       0.08     222.45     114.13       9.15      46.22        0.00     2.04   0.156
  s1496                    295.65       0.00       0.09     201.49     139.28      11.16      94.05        0.00     0.41   0.318
  s1497                    295.65       0.00       0.12      45.96     248.69       0.00     249.66        0.00     0.53   0.844
  s1498                    295.65      22.95       0.11      57.61     259.56       0.00     260.77        0.06    23.36   0.818
  s1499                    295.65       0.00       0.08     216.52     123.78       9.98      56.18        0.00     0.92   0.190
  s15                      295.65       0.00       0.07     226.80     106.88       8.58      42.78        0.02    18.46   0.145
  s150                     295.65       0.00       0.08     220.87     117.10       9.40      48.73        0.00     0.59   0.165
  s1500                    295.65       0.00       0.08     223.10     113.05       9.11      45.63        0.00     1.45   0.154
  s1501                    295.65       0.00       0.09     201.47     139.36      11.23      94.16        0.00     0.41   0.318
  s1502                    295.65       0.00       0.08     216.58     123.87       9.97      56.21        0.00     0.92   0.190
  s1503                    295.65       0.00       0.09     201.47     139.36      11.23      94.16        0.00     0.41   0.318
  s1504                    295.65       0.00       0.09     201.48     139.36      11.23      94.16        0.00     0.41   0.318
  s1505                    295.65      49.39       0.11      56.67     287.13       0.00     288.32        0.02     5.69   0.836
  s1506                    295.65       0.00       0.04      73.70      29.55     192.52     222.06        0.00     1.10   0.751
  s1507                    295.65      14.60       0.11      57.02     251.95       0.00     253.15        0.04    14.92   0.816
  s1508                    295.65       0.00       0.09     201.48     139.39      11.21      94.15        0.00     0.41   0.318
  s1509                    295.65       0.00       0.09     201.48     139.39      11.21      94.15        0.00     0.41   0.318
  s151                     295.65       0.00       0.09     201.48     139.41      11.20      94.15        0.00     0.41   0.318
  s1510                    295.65       0.00       0.09     201.47     139.37      11.21      94.14        0.00     0.41   0.318
  s1511                    295.65       0.00       0.09     201.47     139.38      11.21      94.15        0.00     0.41   0.318
  s1512                    295.65    2254.43       0.14     280.93    2143.64     234.07    2213.44        0.10    39.36   0.868
  s1513                    295.65       0.00       0.05      74.21      29.53     191.97     221.49        0.01     4.95   0.749
[...]
  SWD4031410                  0.28      0.28      4.25      0.02         0.02
  SWD4031607                  1.10      1.84      1.10      2.97         1.10
  SWD4031286                  4.87      4.87      4.87      1.94         1.96
  SWD4031303                  0.69      0.69      0.69      0.31         0.25
  SWD4031306                  1.27      1.33      1.27      2.36         1.27
  SWD4031307                  1.27      1.27      3.00      0.01         0.01
  SWD4031310                  1.51      1.51      1.57      0.08         0.08
  SWD4031312                  3.12      3.12      4.07      1.56         1.56
  SWD4031313                  4.20      4.20      4.23      3.54         3.55
  SWD4031997                  1.42      1.42      1.50      1.48         1.41
  SWD4031998                  1.50      1.50      1.72      0.01         0.03
  SWD4032000                  2.40      2.40      3.12      0.01         0.01
  SWD4032002                  3.12      3.43      3.12      3.58         3.09
  SWD4032011                  0.04      0.04      4.16      0.01         0.01
  SWD4032012                  0.01      0.01      0.01      1.02         0.01
  SWD4031411                  0.06      0.29      0.06      2.18         0.06
  SWD40314131                 0.05      0.96      0.05      3.12         0.05
  SWD4031414                  0.06      0.06      1.14      0.01         0.01
  SWD4031416                  2.99      2.99      4.75      2.29         2.29
  SWD4031417                  0.50      0.50      3.49      0.01         0.01
  SWD4031558                  1.29      1.29      3.61      0.82         0.81
  SWD4031561                  0.55      0.55      0.59      0.53         0.52
  SWD4031568                  0.01      0.01      0.06      0.01         0.01
  SWD4031571                  0.64      0.64      0.67      0.01         0.01
  SWD4031572                  0.67      0.67      0.93      0.01         0.01
  SWD4031585                  0.45      0.45      0.95      0.01         0.01
  SWD4031587                  0.01      0.52      0.01      0.63         0.01
  SWD4031590                  0.16      0.16      0.17      0.01         0.01
  SWD4031981                  2.39      3.25      2.39      3.56         2.39
  SWD4031982                  2.55      2.55      2.68      0.01         0.01
  SWD4031315                  0.55      1.63      0.55      3.55         0.55
  SWD4031618                  1.48      1.48      1.51      0.01         0.01
  SWD4031384                  4.69      4.69      4.83      0.01         0.01
  SWD4032493                  1.63      1.63      2.12      0.01         0.01
  SWD4031285                  3.04      3.04      4.92      0.01         0.01
  SWD4031429                  0.01      0.01      0.01      0.03         0.01
  SWD4031431                  0.04      0.04      0.07      0.01         0.01
  SWD4032494                  3.60      3.60      4.53      3.40         3.40
  SWD4031452                  1.49      1.49      1.74      0.11         0.11
  SWD4031453                  1.74      1.74      1.83      1.74         1.74
  SWD4031455                  0.02      0.17      0.02      1.73         0.02
  SWD4031456                  0.02      0.02      0.10      0.01         0.01
  SWD4031591                  0.20      0.20      0.24      0.01         0.01
  SWD4031593                  0.01      0.01      1.46      0.01         0.01
  SWD4031594                  0.22      0.22      1.60      0.01         0.01
  SWD4031438                  4.88      4.88      4.91      0.13         0.13
  SWD4031441                  3.17      3.17      4.04      0.01         0.01
  SWD4031442                  4.04      4.04      4.91      0.01         0.01
  SWD4031446                  0.10      0.10      0.12      0.04         0.04
  SWD4031449                  0.11      1.47      0.11      1.63         0.11
  SWD4031450                  0.11      0.11      0.13      0.01         0.01
  SWD4036083                  1.93      1.93      2.74      1.80         1.80
  SWD4042094                  0.65      0.65      0.97      0.51         0.48
  SWD4042095                  0.39      0.40      0.39      0.97         0.38
  SWD4062133                  0.01      0.01      0.23      0.01         0.01
  SWD4062136                  0.27      0.27      0.37      0.01         0.01
  SWD4069591                  0.14      0.14      0.17      0.01         0.01
  SWD4065616                  1.16      1.19      1.17      1.03         0.95
  SWD4065604                  1.21      1.25      1.22      1.31         1.15
  SWD4065606                  1.21      1.23      1.21      1.36         1.17
  SWD4065608                  1.04      1.05      1.06      0.80         0.75
  SWD4065609                  1.18      1.18      1.22      0.31         0.31
  SWD4065612                  1.23      1.23      1.24      1.02         1.02
  SWD4062143                  0.27      0.27      1.10      0.01         0.01
  SWD4062148                  1.10      1.10      1.14      0.01         0.01
  SWD4068001                  2.59      2.78      2.59      3.42         2.59
  SWD4065613                  1.24      1.25      1.26      1.13         1.09
  SWD4065615                  1.23      1.23      1.24      1.10         1.05
  SWD4069660                  3.49      3.49      3.50      3.51         3.48
  SWD4069656                  0.47      1.56      0.47      3.19         0.47
  SWD4070002                  0.46      0.46      0.52      0.01         0.01
  SWD4070003                  0.34      0.34      0.43      0.01         0.01
  SWD4068007                  1.78      1.78      2.68      0.01         0.01
  SWD4068003                  2.42      2.42      3.08      0.11         0.11
  SWD4072981                  0.65      0.65      3.24      0.01         0.01
  SWD4081004                  4.94      4.94      4.96      3.27         3.27
  SWD4081000                  3.44      3.44      3.50      3.38         3.38
  SWD4081001                  3.50      3.50      3.71      3.51         3.50
  SWD4081002                  0.38      0.38      1.32      0.01         0.01
  SWD4081003                  1.68      2.78      1.68      3.01         1.68
  SWD4086064                  3.39      3.39      3.68      0.01         0.01
  SWD4094826                  0.07      0.07      3.79      0.01         0.01
  SWD4100260                  2.97      2.97      2.98      2.83         2.83
  SWD4097921                  0.62      0.66      0.62      3.02         0.62
  SWD4093340                  2.92      2.92      3.02      2.01         2.01
  SWD4096300                  1.41      1.41      2.86      0.01         0.01
  SWD4098660                  2.52      2.52      2.99      0.01         0.01
  SWD4094804                  0.12      0.12      0.17      0.12         0.11
  SWD4099362                  1.05      1.05      1.07      0.01         0.01
  SWD4095504                  0.01      0.01      3.65      0.01         0.01
  SWD4094803                  1.95      1.95      2.41      1.99         1.93
  SWD4100267                  2.67      2.89      2.67      3.27         2.67
  SWD4100266                  2.89      2.95      2.89      3.21         2.89
  SWD4100265                  2.95      2.98      2.95      3.18         2.95
  SWD4100262                  2.99      3.00      3.01      2.98         2.95
  SWD4097502                  0.03      0.10      0.03      0.34         0.03
  SWD4013554                  4.13      4.13      4.18      3.77         3.77
  SWD4013557                  0.01      0.01      0.06      0.01         0.01
  SWD4098591                  0.01      0.01      0.04      0.01         0.01
  SWD4098592                  0.08      0.08      4.91      0.01         0.01
  SWD4069574                  0.01      0.01      0.04      0.01         0.01
  SWD4062146                  3.49      3.49      3.65      3.33         3.33
  SWD4070001                  0.52      0.52      0.55      0.01         0.01
  SWD4100264                  3.00      3.01      3.01      3.08         3.00
  SWD4094805                  3.14      3.14      3.19      0.01         0.01
  SWD4031507                  2.30      2.38      2.30      2.30         1.77
  SWD4031517                  0.01      0.09      0.01      0.08         0.01
  SWD4032031                  3.67      3.67      3.72      0.04         0.89
  SWD4032561                  0.01      1.72      0.01      3.16         0.01
  SWD4032049                  4.13      4.13      4.59      0.01         0.01
  SWD4032052                  3.99      3.99      4.57      0.01         0.01
  SWD4031687                  0.15      0.15      0.35      0.01         0.01
  SWD4031690                  0.47      0.47      0.48      0.48         0.46
  SWD4031606                  2.37      3.07      2.37      3.23         2.37
  SWD4031613                  0.86      0.86      1.84      0.01         0.01
  SWD4031408                  0.53      0.53      1.69      0.01         0.01
  SWD4031277                  0.35      0.35      0.37      0.07         0.07
  SWD4031461                  0.51      0.51      1.40      0.15         0.15
  SWD4031464                  1.47      1.50      1.47      2.00         1.47
  SWD4031468                  1.22      1.23      1.23      1.42         1.22
  SWD4031472                  0.30      1.59      0.30      2.13         0.30
  SWD4031480                  1.52      3.11      1.52      3.46         1.52
  SWD4032013                  0.02      0.02      0.09      0.01         0.01
  SWD4031484                  4.70      4.70      4.80      3.83         3.83
  SWD4031487                  4.76      4.87      4.76      4.89         4.76
  SWD4031500                  2.33      2.33      2.50      2.35         2.24
  SWD4031503                  2.26      2.41      2.26      1.96         1.18
  SWD4032113                  1.17      1.23      1.17      1.30         1.10
  SWD4032472                  0.65      1.47      0.65      1.50         0.59
  SWD4032016                  1.29      1.29      1.31      0.57         0.56
  SWD4032019                  1.47      1.47      2.96      0.01         0.01
  SWD4032073                  0.25      0.25      0.53      0.01         0.01
  SWD4032075                  1.41      1.41      1.96      0.45         0.45
  SWD4032086                  1.07      1.07      1.13      0.01         0.01
  SWD4032177                  0.79      0.79      3.14      0.01         0.01
  SWD4103260                  0.01      0.09      0.01      0.11         0.01
  SWD4103262                  0.06      0.06      0.09      0.01         0.01
  SWD4036081                  0.28      0.28      4.09      0.01         0.01
  SWD4031524                  0.56      0.56      0.61      0.01         0.01
  SWD4031928                  2.57      2.76      2.57      2.91         2.57
  SWD4032709                  1.46      4.05      1.46      4.09         1.46
  SWD4031273                  0.06      0.07      0.07      0.08         0.06
  SWD4109723                  0.14      0.14      0.23      0.10         0.10
  SWD4031538                  0.56      0.60      0.56      0.48         0.37
  SWD4100261                  2.98      2.98      3.00      2.93         2.90
  SWD4115249                  1.71      1.71      4.67      0.01         0.01
  SWD4065611                  1.05      1.05      1.10      0.01         0.01
  SWD4115243                  2.36      2.36      2.37      0.01         0.01
  SWD4095501                  4.80      4.80      4.89      0.01         0.01
  SWD4032468                  1.29      1.29      1.38      0.01         0.01
  SWD4031308                  3.00      3.00      3.43      0.91         0.91
  SWD4032066                  1.85      1.85      2.52      0.01         0.01
  SWD4031443                  2.16      2.16      3.17      0.01         0.01
  SWD4113765                  4.51      4.51      4.87      0.01         0.01
  SWD4031933                  1.83      1.83      2.03      0.01         0.01
  SWD4031938                  2.98      3.01      2.98      3.15         2.98
  SWD4115532                  0.09      0.09      2.10      0.01         0.01
  SWD4115531                  2.58      2.58      4.81      0.01         0.01
  SWD4115535                  3.67      3.67      3.69      0.01         0.01
  SWD4116460                  0.76      0.76      3.25      0.10         0.10
  SWD4116462                  2.55      2.55      4.89      0.01         0.01
  SWD4116461                  0.52      0.52      0.57      0.48         0.48
  SWD4116463                  0.57      0.57      0.58      0.48         0.48
  SWD4135981                  4.85      4.85      4.92      0.01         0.01
  SWD4135982                  4.74      4.74      4.85      0.01         0.01
  SWD4136060                  2.46      2.46      2.57      0.01         0.01
  SWD4032107                  0.90      0.90      0.98      0.51         0.50
  SWD4031550                  3.63      3.63      3.73      2.35         2.35
  SWD4068008                  0.11      0.11      1.39      0.01         0.01
  SWD4032010                  1.65      1.65      2.10      1.51         1.51
  SWD4032464                  2.93      2.93      3.95      0.01         0.01
  SWD4031697                  2.50      2.50      3.31      0.09         0.09
  SWD40316101                 2.07      2.07      2.61      0.49         0.48
  SWD4031934                  2.03      2.03      2.73      0.01         0.01
  SWD4115250                  4.58      4.58      4.63      0.01         0.01
  SWD4115251                  0.55      0.55      2.14      0.01         0.01
  SWD4115601                  2.40      2.40      2.46      0.01         0.01
  SWD4115602                  2.30      2.30      2.83      0.01         0.01
  SWD4031605                  1.00      1.00      3.07      0.01         0.01
  SWD4031302                  0.82      0.82      1.07      0.01         0.01
  SWD4036082                  1.27      1.27      3.42      0.76         0.76
  SWD4031515                  2.62      2.62      4.12      0.01         0.01
  SWD4031569                  0.06      0.06      0.23      0.01         0.01
  SWD4032060                  1.07      1.07      1.81      0.01         0.01
  SWD4032500                  0.12      0.12      1.55      0.07         0.07
  SWD4117242                  0.56      0.56      0.63      0.01         0.01
  SWD4031393                  3.34      3.34      3.45      3.15         3.15
  SWD4031592                  0.66      0.66      3.63      0.01         0.01
  SWD4095521                  3.42      3.42      3.48      3.36         3.34
  SWD4031403                  1.50      1.50      3.68      0.16         0.16
  SWD4031693                  0.52      0.55      0.52      0.63         0.52
  SWD4031439                  0.31      0.31      4.01      0.01         0.01
  SWD4062128                  1.59      3.65      1.59      3.67         1.59
  SWD4072980                  0.81      3.44      0.81      3.47         0.81
  SWD4031280                  0.78      0.78      0.84      0.39         0.39
  SWD4032022                  1.03      1.03      1.29      0.01         0.01
  SWD4031282                  1.29      1.29      1.31      1.33         1.19
  SWD4032574                  2.37      2.37      2.50      0.01         0.01
  SWD4032025                  2.76      3.04      2.76      3.10         2.76
  SWD4031492                  4.71      4.71      4.76      0.23         0.23
  SWD4115140                  3.48      3.48      3.59      1.81         1.81
  SWD4089020                  3.08      3.08      3.14      0.01         0.01
  SWD4031995                  1.29      1.29      1.37      0.51         0.51
  SWD4031923                  2.76      2.76      3.68      0.01         0.01
  SWD4065602                  0.81      0.81      0.84      0.01         0.01
  SWD4031578                  0.26      0.26      0.58      0.01         0.01
  SWD4136288                  4.69      4.69      4.93      0.01         0.01
  SWD4116440                  0.45      0.59      0.45      0.69         0.45
  SWD4136319                  0.23      0.26      0.23      0.68         0.23
  SWD4136323                  0.23      0.23      0.26      0.01         0.01
  SWD4136320                  0.26      0.29      0.26      0.29         0.24
  SWD41243411                 4.86      4.86      4.89      0.01         0.01
  SWD4136972                  0.19      0.19      0.20      0.01         0.01
  SWD4136975                  0.17      0.17      0.69      0.01         0.01
  SWD4136976                  0.19      0.19      0.20      0.01         0.01
  SWD4136977                  0.17      0.17      0.17      0.01         0.01
  SWD4031531                  3.20      3.20      4.00      0.01         0.01
  SWD4031570                  0.01      0.01      0.68      0.01         0.01
  SWD4031510                  1.05      1.05      2.49      0.01         0.01
  SWD4031379                  4.61      4.61      4.62      0.01         0.01
  SWD4031700                  0.71      0.91      0.71      1.61         0.71
  SWD4031490                  1.98      1.98      2.45      0.01         0.01
  SWD4032489                  0.08      0.08      0.09      0.01         0.01
  SWD4031996                  1.37      1.37      1.42      1.13         1.11
  SWD4031628                  0.01      0.01      0.07      0.01         0.01
  SWD4031309                  0.90      0.90      1.48      0.01         0.01
  SWD4031447                  0.01      0.09      0.01      0.11         0.01
  SWD41243412                 1.50      2.25      1.50      3.04         1.50
  SMD4001188                  3.37      3.75      3.37      3.80         3.37
  SMD4001189                  3.66      3.66      3.95      3.61         3.61
  SMD4001190                  3.41      3.52      3.76      3.54         3.40
  SMD4005820                  1.40      1.40      2.47      0.69         0.70
  SMD4001200                  2.06      2.06      3.06      0.01         0.01
  SMD4001180                  1.18      1.18      1.92      0.01         0.01
  SWD40316102                 0.06      2.61      0.06      3.33         0.06
  SWD40315291                 1.39      1.39      1.46      0.01         0.01
  SWD40314132                 0.05      0.05      0.43      0.01         0.01
  SBP4013682                  3.05      3.06      3.10      0.01         0.02
  SBP4009706                  0.09      0.09      4.82      0.01         0.01
  SBP4012900                  0.01      0.01      0.01      0.08         0.01
  SBP4013621                  0.01      0.01      0.01      0.22         0.01
  SBP40098201                 3.74      3.74      4.19      0.01         0.01
  SBP40098203                 0.81      0.81      0.83      0.33         0.36
  SBP40098202                 3.74      3.74      4.19      0.01         0.01
  SBP40098204                 0.83      0.83      1.07      0.01         0.01
  SBP4013558                  0.01      0.01      0.01      3.00         0.01
  SBP4013681                  1.07      1.07      3.06      0.01         0.01
  SBP40136831                 0.01      0.01      0.01      0.78         0.01
  SBP40091011                 0.01      0.01      0.01      2.80         0.01
  SBP4012881                  0.01      0.01      0.01      1.35         0.01
  SBP40184802                 0.01      0.01      0.01      2.86         0.01
  

  Analysis begun on:  Wed May 18 18:29:12 2022
  Analysis ended on:  Wed May 18 18:29:52 2022
  Total elapsed time: 00:00:40