
  EPA STORM WATER MANAGEMENT MODEL - VERSION 5.1 (Build 5.1.015)
  --------------------------------------------------------------

  
  *********************
  Rainfall File Summary
  *********************
  Station    First        Last         Recording   Periods    Periods    Periods
  ID         Date         Date         Frequency  w/Precip    Missing    Malfunc.
  -------------------------------------------------------------------------------
  STA01      07/06/2021   07/07/2021       1 min       181          0          0

  
  *********************************************************
  NOTE: The summary statistics displayed in this report are
  based on results found at every computational time step,  
  not just on results from each reporting time step.
  *********************************************************
  
  ****************
  Analysis Options
  ****************
  Flow Units ............... LPS
  Process Models:
    Rainfall/Runoff ........ YES
    RDII ................... NO
    Snowmelt ............... NO
    Groundwater ............ NO
    Flow Routing ........... YES
    Ponding Allowed ........ YES
    Water Quality .......... NO
  Infiltration Method ...... GREEN_AMPT
  Flow Routing Method ...... DYNWAVE
  Surcharge Method ......... EXTRAN
  Starting Date ............ 07/06/2021 23:30:00
  Ending Date .............. 07/07/2021 02:30:00
  Antecedent Dry Days ...... 0.0
  Report Time Step ......... 00:02:00
  Wet Time Step ............ 00:01:00
  Dry Time Step ............ 00:01:00
  Routing Time Step ........ 1.00 sec
  Variable Time Step ....... YES
  Maximum Trials ........... 8
  Number of Threads ........ 1
  Head Tolerance ........... 0.001500 m
  
  
  *********************
  Control Actions Taken
  *********************

  
  **************************        Volume         Depth
  Runoff Quantity Continuity     hectare-m            mm
  **************************     ---------       -------
  Initial Snow Cover .......         0.000         0.000
  Total Precipitation ......         1.472        24.900
  Evaporation Loss .........         0.016         0.279
  Infiltration Loss ........         0.195         3.293
  Surface Runoff ...........         1.258        21.280
  Snow Removed .............         0.000         0.000
  Final Snow Cover .........         0.000         0.000
  Final Storage ............         0.011         0.193
  Continuity Error (%) .....        -0.580
  
  
  **************************        Volume        Volume
  Flow Routing Continuity        hectare-m      10^6 ltr
  **************************     ---------     ---------
  Dry Weather Inflow .......         0.000         0.000
  Wet Weather Inflow .......         1.258        12.582
  Groundwater Inflow .......         0.000         0.000
  RDII Inflow ..............         0.000         0.000
  External Inflow ..........         0.070         0.702
  External Outflow .........         1.274        12.735
  Flooding Loss ............         0.000         0.000
  Evaporation Loss .........         0.000         0.000
  Exfiltration Loss ........         0.000         0.000
  Initial Stored Volume ....         0.000         0.000
  Final Stored Volume ......         0.057         0.566
  Continuity Error (%) .....        -0.133
  
  
  *************************
  Highest Continuity Errors
  *************************
  Node SMH4029090 (11.46%)
  Node SMH4029074 (7.62%)
  Node SMH4028623 (7.27%)
  Node SMH4029109 (6.34%)
  Node SMH4028979 (-6.05%)
  
  
  ***************************
  Time-Step Critical Elements
  ***************************
  Link SWD40316102 (39.37%)
  Link SBP40091031 (30.08%)
  Link SBP4013682 (24.92%)
  
  
  ********************************
  Highest Flow Instability Indexes
  ********************************
  Link SBP4013682 (27)
  Link SWD40315292 (21)
  Link SDP4001621 (14)
  Link SWD40315291 (13)
  Link SWD4031515 (13)
  
  
  *************************
  Routing Time Step Summary
  *************************
  Minimum Time Step           :     0.02 sec
  Average Time Step           :     0.52 sec
  Maximum Time Step           :     1.00 sec
  Percent in Steady State     :     0.00
  Average Iterations per Step :     2.93
  Percent Not Converging      :    10.74
  Time Step Frequencies       :
      1.000 -  0.871 sec      :     4.90 %
      0.871 -  0.758 sec      :     0.11 %
      0.758 -  0.660 sec      :     0.06 %
      0.660 -  0.574 sec      :     0.07 %
      0.574 -  0.500 sec      :    94.87 %
  
  
  ***************************
  Subcatchment Runoff Summary
  ***************************
  
  ------------------------------------------------------------------------------------------------------------------------------
                            Total      Total      Total      Total     Imperv       Perv      Total       Total     Peak  Runoff
                           Precip      Runon       Evap      Infil     Runoff     Runoff     Runoff      Runoff   Runoff   Coeff
  Subcatchment                 mm         mm         mm         mm         mm         mm         mm    10^6 ltr      LPS
  ------------------------------------------------------------------------------------------------------------------------------
  s1                        24.90      15.39       0.29       2.04      36.04       2.01      38.05        0.00     1.94   0.945
  s2                        24.90       0.00       0.29       1.65      22.11       0.87      22.98        0.00     0.21   0.923
  s3                        24.90       0.00       0.29       1.67      22.12       0.84      22.96        0.00     0.41   0.922
  s4                        24.90       0.00       0.29       1.66      22.20       0.86      23.06        0.00     0.20   0.926
  s5                        24.90       0.00       0.29       1.92      21.91       0.56      22.47        0.00     0.71   0.903
  s6                        24.90       0.00       0.32       0.00      24.47       0.00      24.47        0.00     0.39   0.983
  s7                        24.90       0.00       0.32       0.00      24.51       0.00      24.51        0.00     0.20   0.984
  s8                        24.90       0.00       0.32       0.00      24.51       0.00      24.51        0.00     0.20   0.984
  s9                        24.90      59.99       0.32       0.00      84.68       0.00      84.68        0.02    20.55   0.998
  s10                       24.90       0.00       0.29       1.65      22.11       0.87      22.98        0.00     0.21   0.923
  s11                       24.90       0.00       0.29       1.70      22.09       0.80      22.89        0.00     0.60   0.919
  s12                       24.90       0.00       0.29       1.71      22.09       0.80      22.88        0.00     0.60   0.919
  s13                       24.90       0.00       0.29       1.69      22.10       0.82      22.92        0.00     0.40   0.920
  s14                       24.90       0.00       0.29       1.76      22.03       0.74      22.77        0.00     0.98   0.914
  s15                       24.90       0.00       0.29       1.76      22.03       0.73      22.76        0.01    12.65   0.914
  s16                       24.90       0.00       0.32       0.00      24.41       0.00      24.41        0.00     1.30   0.980
  s17                       24.90       0.00       0.32       0.00      24.34       0.00      24.34        0.00     3.82   0.977
  s18                       24.90       0.00       0.29       1.83      21.97       0.66      22.64        0.00     0.19   0.909
  s19                       24.90       0.00       0.29       1.83      21.97       0.66      22.64        0.00     0.19   0.909
  s20                       24.90       0.00       0.29       1.83      21.97       0.66      22.64        0.00     0.19   0.909
  s21                       24.90      30.84       0.32       0.00      55.42       0.00      55.42        0.02    28.15   0.994
  s22                       24.90       0.00       0.29       1.65      22.11       0.87      22.98        0.00     0.21   0.923
  s23                       24.90       0.00       0.29       1.67      22.12       0.84      22.96        0.00     0.41   0.922
  s24                       24.90       0.00       0.29       1.96      21.89       0.53      22.42        0.00     1.04   0.900
  s25                       24.90       0.00       0.29       1.83      21.97       0.66      22.64        0.00     0.19   0.909
  s26                       24.90       0.00       0.29       1.65      22.11       0.87      22.98        0.00     0.21   0.923
  s27                       24.90       0.00       0.29       1.67      22.12       0.85      22.96        0.00     0.61   0.922
  s28                       24.90       0.00       0.29       1.65      22.11       0.87      22.98        0.00     0.21   0.923
  s29                       24.90       0.00       0.29       1.71      22.09       0.80      22.89        0.00     1.40   0.919
  s30                       24.90       0.00       0.29       1.65      22.11       0.87      22.98        0.00     0.21   0.923
  s31                       24.90       0.00       0.29       1.65      22.11       0.87      22.98        0.00     0.20   0.923
  s32                       24.90       0.00       0.29       1.66      22.11       0.86      22.97        0.00     0.20   0.923
  s33                       24.90       0.00       0.29       1.64      22.11       0.88      22.99        0.00     0.21   0.923
  s34                       24.90       0.00       0.29       1.68      22.11       0.84      22.95        0.00     0.61   0.922
  s35                       24.90       0.00       0.29       1.72      22.08       0.79      22.87        0.00     1.79   0.918
  s36                       24.90       0.00       0.29       1.72      22.07       0.78      22.85        0.00     2.98   0.918
  s37                       24.90      45.18       0.30       2.74      62.77       4.31      67.07        0.00     5.44   0.957
  s38                       24.90       0.00       0.29       1.67      22.12       0.85      22.96        0.00     0.61   0.922
  s39                       24.90       0.00       0.29       1.83      21.97       0.66      22.64        0.00     0.19   0.909
  s40                       24.90      11.54       0.32       0.00      36.18       0.00      36.18        0.00     1.78   0.993
  s41                       24.90      53.75       0.32       0.00      78.46       0.00      78.46        0.00     1.95   0.997
  s42                       24.90       0.00       0.29       1.64      22.11       0.88      22.99        0.00     0.21   0.923
  s43                       24.90       0.00       0.29       1.67      22.12       0.84      22.96        0.00     0.41   0.922
  s44                       24.90       0.00       0.29       1.65      22.11       0.87      22.98        0.00     0.21   0.923
  s45                       24.90       0.00       0.29       1.69      22.11       0.82      22.92        0.00     0.60   0.921
  s46                       24.90       0.00       0.29       1.64      22.11       0.88      22.99        0.00     0.21   0.923
  s47                       24.90       0.00       0.29       1.66      22.19       0.85      23.04        0.00     0.41   0.925
  s48                       24.90     127.10       0.32       0.00     151.61       0.00     151.61        0.02    26.57   0.997
  s49                       24.90       0.00       0.29       1.66      22.11       0.86      22.97        0.00     0.20   0.923
  s50                       24.90      47.37       0.30       2.99      64.52       4.24      68.76        0.02    19.57   0.951
  s51                       24.90      13.68       0.29       2.07      34.40       1.80      36.20        0.00     2.13   0.938
  s52                       24.90       0.00       0.29       1.69      22.10       0.81      22.91        0.00     0.40   0.920
  s53                       24.90       0.00       0.29       1.66      22.11       0.86      22.97        0.00     0.20   0.923
  s54                       24.90       0.00       0.29       1.72      22.07       0.78      22.85        0.00     0.40   0.918
  s55                       24.90       0.00       0.29       1.67      22.11       0.85      22.97        0.00     0.20   0.922
  s56                       24.90       0.00       0.29       1.83      21.97       0.66      22.64        0.00     0.19   0.909
  s57                       24.90       0.00       0.32       0.00      24.70       0.00      24.70        0.00     0.21   0.992
  s58                       24.90       0.00       0.29       1.68      22.22       0.83      23.06        0.00     0.41   0.926
  s59                       24.90       0.00       0.32       0.00      24.69       0.00      24.69        0.00     0.21   0.991
  s60                       24.90      58.02       0.30       3.16      74.25       5.12      79.37        0.01    11.40   0.957
  s61                       24.90      16.84       0.29       2.43      37.19       1.74      38.93        0.00     1.20   0.933
  s62                       24.90       0.00       0.29       1.96      22.04       0.53      22.57        0.00     0.73   0.906
  s63                       24.90       0.00       0.29       1.91      22.07       0.58      22.66        0.00     0.37   0.910
  s64                       24.90       0.00       0.29       1.87      21.94       0.62      22.56        0.00     0.37   0.906
  s65                       24.90     122.37       0.30       3.50     132.27      11.24     143.51        0.00     5.56   0.974
  s66                       24.90       0.00       0.29       1.87      21.94       0.62      22.56        0.00     0.37   0.906
  s67                       24.90       0.00       0.29       1.99      21.87       0.50      22.37        0.00     1.52   0.898
  s68                       24.90       0.00       0.29       1.90      21.92       0.59      22.51        0.00     0.54   0.904
  s69                       24.90     585.74       0.30       3.83     550.51      57.43     607.95        0.00     5.12   0.996
  s70                       24.90      12.36       0.29       1.97      33.22       1.79      35.01        0.00     0.59   0.940
  s71                       24.90       0.00       0.29       1.83      21.97       0.66      22.64        0.00     0.19   0.909
  s72                       24.90      91.76       0.30       3.17     104.78       8.56     113.34        0.00     4.94   0.972
  s73                       24.90       0.00       0.29       1.83      21.97       0.66      22.64        0.00     0.19   0.909
  s74                       24.90       0.00       0.32       0.00      24.52       0.00      24.52        0.00     0.21   0.985
  s75                       24.90       0.00       0.32       0.00      24.52       0.00      24.52        0.00     0.21   0.985
  s76                       24.90       4.55       0.32       0.00      29.00       0.00      29.00        0.00     3.87   0.985
  s77                       24.90       6.18       0.06      16.76       3.11      11.31      14.42        0.00     0.77   0.464
  s78                       24.90       0.00       0.05      14.70       2.50       7.93      10.43        0.00     0.16   0.419
  s79                       24.90       0.00       0.32       0.00      24.51       0.00      24.51        0.00     0.20   0.984
  s80                       24.90       3.16       0.32       0.00      27.76       0.00      27.76        0.00     5.06   0.990
  s81                       24.90       0.00       0.29       1.64      22.28       0.88      23.15        0.00     0.21   0.930
  s82                       24.90       0.00       0.29       1.67      22.23       0.84      23.07        0.00     0.41   0.926
  s83                       24.90      34.85       0.32       0.00      59.50       0.00      59.50        0.01    10.94   0.996
  s84                       24.90       0.00       0.29       1.66      22.11       0.86      22.97        0.00     0.20   0.923
  s85                       24.90       0.00       0.29       1.65      22.11       0.87      22.98        0.00     0.21   0.923
  s86                       24.90       0.00       0.29       1.67      22.22       0.83      23.05        0.00     0.41   0.926
  s87                       24.90       0.00       0.29       1.85      22.08       0.63      22.71        0.00     0.37   0.912
  s88                       24.90       0.00       0.29       1.88      22.06       0.61      22.66        0.00     0.55   0.910
  s89                       24.90       0.00       0.29       1.67      22.22       0.84      23.05        0.00     0.20   0.926
  s90                       24.90       0.00       0.29       1.75      22.16       0.75      22.91        0.00     4.16   0.920
  s91                       24.90       0.00       0.29       1.64      22.26       0.88      23.14        0.00     0.21   0.929
  s92                       24.90       0.00       0.29       1.67      22.22       0.83      23.05        0.00     0.41   0.926
  s93                       24.90       0.00       0.29       1.70      22.20       0.81      23.01        0.00     0.60   0.924
  s94                       24.90       0.00       0.32       0.00      24.65       0.00      24.65        0.00     0.62   0.990
  s95                       24.90       0.00       0.29       1.94      21.90       0.55      22.44        0.00     2.80   0.901
  s96                       24.90       0.00       0.29       1.87      21.94       0.62      22.56        0.00     0.37   0.906
  s97                       24.90       5.79       0.32       0.00      30.42       0.00      30.42        0.00     1.01   0.991
  s98                       24.90       0.00       0.29       1.66      22.11       0.86      22.97        0.00     0.20   0.923
  s99                       24.90      53.06       0.32       0.00      77.74       0.00      77.74        0.01     7.51   0.997
  s100                      24.90       0.00       0.32       0.00      24.45       0.00      24.45        0.00     2.89   0.982
  s101                      24.90       0.00       0.32       0.00      24.50       0.00      24.50        0.00     1.04   0.984
  s102                      24.90       0.00       0.32       0.00      24.51       0.00      24.51        0.00     1.25   0.984
  s103                      24.90       0.00       0.32       0.00      24.50       0.00      24.50        0.00     0.21   0.984
  s104                      24.90      40.05       0.32       0.00      64.79       0.00      64.79        0.01    15.49   0.997
  s105                      24.90       0.00       0.32       0.00      24.52       0.00      24.52        0.00     0.21   0.985
  s106                      24.90       0.00       0.32       0.00      24.52       0.00      24.52        0.00     1.04   0.985
  s107                      24.90       0.00       0.32       0.00      24.52       0.00      24.52        0.00     0.42   0.985
  s108                      24.90       0.00       0.32       0.00      24.50       0.00      24.50        0.00     1.46   0.984
  s109                      24.90       0.00       0.32       0.00      24.50       0.00      24.50        0.00     1.87   0.984
  s110                      24.90       0.00       0.32       0.00      24.49       0.00      24.49        0.00     2.91   0.984
  s111                      24.90       0.00       0.32       0.00      24.52       0.00      24.52        0.00     0.62   0.985
  s112                      24.90       0.00       0.32       0.00      24.50       0.00      24.50        0.00     0.21   0.984
  s113                      24.90       0.00       0.32       0.00      24.51       0.00      24.51        0.00     1.04   0.984
  s114                      24.90       0.00       0.32       0.00      24.52       0.00      24.52        0.00     0.21   0.985
  s115                      24.90       0.00       0.32       0.00      24.51       0.00      24.51        0.00     0.21   0.984
  s116                      24.90       0.00       0.29       1.96      21.89       0.53      22.42        0.00     1.04   0.900
  s117                      24.90       0.00       0.32       0.00      24.51       0.00      24.51        0.00     0.20   0.984
  s118                      24.90       0.00       0.32       0.00      24.64       0.00      24.64        0.00     3.52   0.990
  s119                      24.90       0.00       0.32       0.00      24.54       0.00      24.54        0.00     2.43   0.986
  s120                      24.90      44.99       0.32       0.00      69.66       0.00      69.66        0.01    17.13   0.997
  s121                      24.90      29.48       0.32       0.00      53.94       0.00      53.94        0.00     2.17   0.992
  s122                      24.90       0.00       0.32       0.00      24.42       0.00      24.42        0.01     8.65   0.981
  s123                      24.90       0.00       0.32       0.00      24.51       0.00      24.51        0.00     0.42   0.984
  s124                      24.90     121.81       0.32       0.00     146.49       0.00     146.49        0.00     1.22   0.998
  s125                      24.90       0.00       0.32       0.00      24.52       0.00      24.52        0.00     0.21   0.985
  s126                      24.90       0.00       0.32       0.00      24.52       0.00      24.52        0.00     0.21   0.985
  s127                      24.90       0.00       0.32       0.00      24.52       0.00      24.52        0.00     1.04   0.985
  s128                      24.90       0.00       0.32       0.00      24.62       0.00      24.62        0.00     2.88   0.989
  s129                      24.90       0.00       0.32       0.00      24.42       0.00      24.42        0.00     1.44   0.981
  s130                      24.90       0.00       0.32       0.00      24.68       0.00      24.68        0.00     0.21   0.991
  s131                      24.90       0.00       0.32       0.00      24.70       0.00      24.70        0.00     0.21   0.992
  s132                      24.90       0.00       0.32       0.00      24.70       0.00      24.70        0.00     0.21   0.992
  s133                      24.90       0.00       0.32       0.00      24.65       0.00      24.65        0.00     2.28   0.990
  s134                      24.90       0.00       0.32       0.00      24.68       0.00      24.68        0.00     1.67   0.991
  s135                      24.90       0.00       0.32       0.00      24.51       0.00      24.51        0.00     0.21   0.984
  s136                      24.90       0.00       0.32       0.00      24.51       0.00      24.51        0.00     0.21   0.985
  s137                      24.90       0.00       0.32       0.00      24.51       0.00      24.51        0.00     1.04   0.984
  s138                      24.90       0.00       0.32       0.00      24.65       0.00      24.65        0.00     3.73   0.990
  s139                      24.90       1.33       0.32       0.00      26.00       0.00      26.00        0.00     3.60   0.991
  s140                      24.90       0.00       0.05      14.60       2.50       8.03      10.53        0.00     0.16   0.423
  s141                      24.90       0.00       0.05      14.52       2.50       8.12      10.62        0.00     0.17   0.426
  s142                      24.90       2.09       0.32       0.00      26.61       0.00      26.61        0.01    10.20   0.986
  s143                      24.90       0.00       0.32       0.00      24.52       0.00      24.52        0.00     0.21   0.985
  s144                      24.90       0.00       0.32       0.00      24.52       0.00      24.52        0.00     0.21   0.985
  s145                      24.90       0.00       0.32       0.00      24.44       0.00      24.44        0.00     0.41   0.981
  s146                      24.90      25.11       0.32       0.00      49.78       0.00      49.78        0.00     4.42   0.996
  s147                      24.90       0.00       0.29       1.65      22.24       0.87      23.11        0.00     0.21   0.928
  s148                      24.90       0.00       0.29       1.67      22.22       0.84      23.07        0.00     0.61   0.926
  s149                      24.90       0.00       0.29       1.69      22.20       0.81      23.01        0.00     0.81   0.924
  s150                      24.90       0.00       0.29       1.68      22.21       0.82      23.03        0.00     0.40   0.925
  s151                      24.90       0.00       0.29       1.66      22.23       0.86      23.09        0.00     0.20   0.927
  s152                      24.90       0.00       0.29       1.71      22.20       0.80      22.99        0.00     0.40   0.923
  s153                      24.90       2.33       0.32       0.00      26.96       0.00      26.96        0.00     2.25   0.990
  s154                      24.90       0.00       0.29       1.64      22.25       0.87      23.13        0.00     0.21   0.929
  s155                      24.90     115.10       0.32       0.00     139.68       0.00     139.68        0.04    51.30   0.998
  s156                      24.90       0.00       0.06      15.80       2.50       6.65       9.14        0.00     0.68   0.367
  s157                      24.90       0.00       0.06      15.72       2.50       6.74       9.24        0.00     0.82   0.371
  s158                      24.90       0.00       0.05      14.72       2.50       7.85      10.35        0.00     0.16   0.415
  s159                      24.90      17.30       0.08      20.39       4.22      17.56      21.78        0.01    12.63   0.516
  s160                      24.90       9.28       0.09      21.20       3.41       9.50      12.91        0.02    34.06   0.378
  s161                      24.90       0.00       0.06      16.10       2.49       6.33       8.83        0.00     1.42   0.354
  s162                      24.90       0.00       0.06      15.61       2.50       6.85       9.35        0.00     0.28   0.375
  s163                      24.90       0.00       0.06      15.61       2.50       6.85       9.35        0.00     0.28   0.375
  s164                      24.90       0.00       0.05      15.41       2.50       7.08       9.58        0.00     0.15   0.385
  s165                      24.90       0.00       0.05      14.98       2.50       7.55      10.05        0.00     0.15   0.404
  s166                      24.90       0.00       0.05      15.55       2.44       6.97       9.41        0.00     0.30   0.378
  s167                      24.90       5.04       0.08      19.35       2.94       7.59      10.54        0.01    10.70   0.352
  s168                      24.90       0.00       0.06      16.02       2.45       6.45       8.90        0.00     0.69   0.357
  s169                      24.90       3.71       0.08      19.31       2.81       6.42       9.23        0.00     0.21   0.323
  s170                      24.90     138.96       0.16      32.62      16.32     114.89     131.21        0.00     3.86   0.801
  s171                      24.90       0.00       0.05      15.55       2.44       6.97       9.41        0.00     0.30   0.378
  s172                      24.90       0.00       0.05      15.59       2.44       6.92       9.36        0.00     0.44   0.376
  s173                      24.90       0.00       0.05      15.34       2.44       7.22       9.66        0.00     0.15   0.388
  s174                      24.90       0.00       0.05      15.34       2.44       7.22       9.66        0.00     0.15   0.388
  s175                      24.90       0.00       0.06      17.14       2.45       5.29       7.74        0.00     2.71   0.311
  s176                      24.90       0.00       0.06      16.56       2.45       5.89       8.34        0.00     1.26   0.335
  s177                      24.90       0.00       0.06      16.53       2.45       5.92       8.37        0.00     1.26   0.336
  s178                      24.90       0.00       0.06      16.53       2.45       5.92       8.37        0.00     1.26   0.336
  s179                      24.90       0.00       0.06      16.53       2.45       5.92       8.37        0.00     1.26   0.336
  s180                      24.90       0.00       0.06      16.41       2.45       6.05       8.49        0.00     1.16   0.341
  s181                      24.90       0.00       0.06      16.44       2.45       6.02       8.46        0.00     1.15   0.340
  s182                      24.90       4.33       0.08      19.76       2.87       6.53       9.40        0.00     6.42   0.322
  s183                      24.90       0.00       0.05      15.19       2.44       7.39       9.82        0.00     0.16   0.395
  s184                      24.90       0.00       0.05      15.19       2.44       7.39       9.82        0.00     0.16   0.395
  s185                      24.90     129.48       0.11      27.01      15.37     112.25     127.62        0.00     6.35   0.827
  s186                      24.90       0.00       0.06      15.85       2.44       6.64       9.08        0.00     0.71   0.365
  s187                      24.90       0.00       0.06      17.52       2.49       4.87       7.36        0.00     0.10   0.295
  s188                      24.90       0.00       0.09      20.89       2.47       1.45       3.92        0.00     4.42   0.157
  s189                      24.90       0.00       0.05      15.24       2.44       7.33       9.77        0.00     0.16   0.392
  s190                      24.90       6.57       0.06      16.35       3.10      12.10      15.20        0.00     0.69   0.483
  s191                      24.90       0.00       0.06      17.52       2.49       4.87       7.36        0.00     0.10   0.295
  s192                      24.90       0.00       0.06      15.93       2.45       6.55       8.99        0.00     0.70   0.361
  s193                      24.90      16.84       0.07      19.28       4.12      18.37      22.48        0.00     0.88   0.539
  s194                      24.90       0.00       0.05      15.44       2.44       7.09       9.53        0.00     0.15   0.383
  s195                      24.90       0.00       0.08      19.97       2.48       2.38       4.85        0.00     1.13   0.195
  s196                      24.90       0.00       0.08      19.82       2.48       2.53       5.01        0.00     0.97   0.201
  s197                      24.90       0.00       0.07      18.55       2.48       3.81       6.30        0.00     0.28   0.253
  s198                      24.90       0.00       0.05      15.41       2.50       7.08       9.58        0.00     0.15   0.385
  s199                      24.90       0.00       0.05      15.07       2.50       7.43       9.93        0.00     0.15   0.399
  s200                      24.90       0.00       0.05      14.98       2.50       7.55      10.05        0.00     0.15   0.404
  s201                      24.90       0.00       0.08      19.38       2.48       2.98       5.46        0.00     6.25   0.219
  s202                      24.90       0.00       0.07      18.55       2.48       3.81       6.30        0.00     0.28   0.253
  s203                      24.90       0.00       0.07      18.55       2.48       3.81       6.30        0.00     0.28   0.253
  s204                      24.90       0.00       0.08      19.34       2.48       3.02       5.50        0.00     0.60   0.221
  s205                      24.90       0.47       0.08      19.77       2.53       3.01       5.54        0.00     0.78   0.218
  s206                      24.90       0.00       0.08      19.18       2.48       3.18       5.66        0.00     0.51   0.227
  s207                      24.90       0.00       0.07      18.02       2.49       4.36       6.84        0.00     0.17   0.275
  s208                      24.90       3.09       0.08      19.90       2.79       5.23       8.03        0.00     0.47   0.287
  s209                      24.90      33.72       0.09      22.30       5.88      30.42      36.30        0.00     0.35   0.619
  s210                      24.90       0.00       0.07      18.02       2.49       4.36       6.84        0.00     0.17   0.275
  s211                      24.90       0.00       0.07      18.73       2.48       3.63       6.12        0.00     0.33   0.246
  s212                      24.90       0.00       0.07      18.02       2.49       4.36       6.84        0.00     0.17   0.275
  s213                      24.90       0.00       0.06      17.52       2.49       4.87       7.36        0.00     0.10   0.295
  s214                      24.90       0.00       0.07      18.32       2.49       4.05       6.53        0.00     0.23   0.262
  s215                      24.90       0.00       0.08      19.15       2.44       3.23       5.66        0.00     0.37   0.227
  s216                      24.90       0.00       0.06      17.52       2.49       4.87       7.36        0.00     0.10   0.295
  s217                      24.90       0.00       0.07      18.63       2.44       3.76       6.20        0.00     0.22   0.249
  s218                      24.90      14.89       0.09      21.32       3.98      14.44      18.42        0.00     0.51   0.463
  s219                      24.90       0.00       0.07      18.34       2.44       4.06       6.50        0.00     0.16   0.261
  s220                      24.90       0.00       0.07      18.34       2.44       4.06       6.50        0.00     0.16   0.261
  s221                      24.90       0.00       0.07      18.63       2.44       3.76       6.20        0.00     0.22   0.249
  s222                      24.90       0.00       0.07      17.86       2.45       4.55       7.00        0.00     0.09   0.281
  s223                      24.90       1.76       0.32       0.00      26.38       0.00      26.38        0.00     6.16   0.990
  s224                      24.90       0.00       0.06      15.64       2.44       6.87       9.32        0.00     0.29   0.374
  s225                      24.90       0.00       0.05      15.19       2.44       7.39       9.82        0.00     0.16   0.395
  s226                      24.90       0.00       0.06      15.77       2.44       6.74       9.18        0.00     0.14   0.369
  s227                      24.90       0.00       0.05      15.44       2.44       7.09       9.53        0.00     0.15   0.383
  s228                      24.90      38.06       0.30       2.75      56.25       3.57      59.81        0.00     2.75   0.950
  s229                      24.90       0.00       0.32       0.00      24.69       0.00      24.69        0.00     0.21   0.991
  s230                      24.90    1801.11       0.32       0.00    1826.01       0.00    1826.01        0.06    67.54   1.000
  s231                      24.90       0.00       0.32       0.00      24.59       0.00      24.59        0.00     4.51   0.988
  s232                      24.90      68.72       0.30       3.13      83.96       6.24      90.20        0.06    66.50   0.964
  s233                      24.90     201.68       0.32       0.00     226.53       0.00     226.53        0.00     1.77   1.000
  s234                      24.90       0.00       0.29       1.96      22.01       0.53      22.54        0.00     1.43   0.905
  s235                      24.90       0.00       0.29       1.81      22.11       0.68      22.79        0.00     0.19   0.915
  s236                      24.90       0.00       0.32       0.00      24.70       0.00      24.70        0.00     0.21   0.992
  s237                      24.90     545.71       0.32       0.00     570.56       0.00     570.56        0.04    53.12   1.000
  s238                      24.90       0.00       0.29       1.85      22.08       0.63      22.71        0.00     0.37   0.912
  s239                      24.90       0.00       0.29       1.74      22.17       0.76      22.93        0.00     0.59   0.921
  s240                      24.90      66.56       0.30       3.08      82.08       6.08      88.15        0.04    50.91   0.964
  s241                      24.90       0.00       0.32       0.00      24.69       0.00      24.69        0.00     0.21   0.992
  s242                      24.90       0.00       0.32       0.00      24.55       0.00      24.55        0.00     2.23   0.986
  s243                      24.90       0.00       0.32       0.00      24.69       0.00      24.69        0.00     0.21   0.991
  s244                      24.90       0.00       0.32       0.00      24.69       0.00      24.69        0.00     0.21   0.991
  s245                      24.90       0.00       0.32       0.00      24.65       0.00      24.65        0.00     0.41   0.990
  s246                      24.90       0.00       0.32       0.00      24.55       0.00      24.55        0.00     0.81   0.986
  s247                      24.90       0.00       0.32       0.00      24.65       0.00      24.65        0.00     0.41   0.990
  s248                      24.90       2.00       0.32       0.00      26.48       0.00      26.48        0.01     9.79   0.984
  s249                      24.90       0.00       0.32       0.00      24.69       0.00      24.69        0.00     0.21   0.991
  s250                      24.90       0.00       0.32       0.00      24.68       0.00      24.68        0.00     0.21   0.991
  s251                      24.90       0.00       0.32       0.00      24.62       0.00      24.62        0.00     0.41   0.989
  s252                      24.90       0.00       0.32       0.00      24.69       0.00      24.69        0.00     0.21   0.991
  s253                      24.90       0.00       0.32       0.00      24.51       0.00      24.51        0.00     0.20   0.984
  s254                      24.90       0.00       0.32       0.00      24.64       0.00      24.64        0.00     0.41   0.990
  s255                      24.90     127.67       0.32       0.00     152.59       0.00     152.59        0.02    23.72   1.000
  s256                      24.90       0.00       0.29       1.64      22.27       0.88      23.15        0.00     0.21   0.930
  s257                      24.90       0.00       0.29       1.63      22.29       0.90      23.18        0.00     0.21   0.931
  s258                      24.90       0.00       0.29       1.67      22.22       0.83      23.05        0.00     0.81   0.926
  s259                      24.90       0.00       0.29       1.63      22.28       0.89      23.18        0.00     0.21   0.931
  s260                      24.90       0.00       0.29       1.81      22.11       0.68      22.79        0.00     0.19   0.915
  s261                      24.90       0.00       0.29       1.63      22.30       0.90      23.20        0.00     0.21   0.932
  s262                      24.90       0.00       0.29       1.65      22.25       0.87      23.12        0.00     0.61   0.928
  s263                      24.90       0.00       0.29       1.69      22.20       0.81      23.01        0.00     5.24   0.924
  s264                      24.90       0.00       0.29       1.66      22.23       0.86      23.08        0.00     0.61   0.927
  s265                      24.90      11.57       0.29       2.02      32.58       1.64      34.21        0.01    13.24   0.938
  s266                      24.90       0.00       0.32       0.00      24.69       0.00      24.69        0.00     0.21   0.991
  s267                      24.90      16.95       0.32       0.00      41.53       0.00      41.53        0.00     1.34   0.992
  s268                      24.90       0.00       0.32       0.00      24.69       0.00      24.69        0.00     0.62   0.992
  s269                      24.90       9.92       0.32       0.00      34.57       0.00      34.57        0.00     2.00   0.993
  s270                      24.90       0.00       0.32       0.00      24.71       0.00      24.71        0.00     0.21   0.992
  s271                      24.90       0.00       0.29       1.64      22.26       0.88      23.15        0.00     0.21   0.930
  s272                      24.90       0.00       0.29       1.88      22.06       0.61      22.66        0.00     0.55   0.910
  s273                      24.90       0.00       0.29       1.66      22.23       0.85      23.08        0.00     0.41   0.927
  s274                      24.90       0.00       0.32       0.00      24.40       0.00      24.40        0.00     1.47   0.980
  s275                      24.90       0.00       0.29       1.81      22.11       0.68      22.79        0.00     0.19   0.915
  s276                      24.90      13.61       0.32       0.00      38.12       0.00      38.12        0.03    36.42   0.990
  s277                      24.90       0.00       0.29       1.81      22.11       0.68      22.79        0.00     0.19   0.915
  s278                      24.90       0.00       0.29       1.88      22.06       0.61      22.66        0.00     0.55   0.910
  s279                      24.90       0.00       0.29       1.81      22.11       0.68      22.79        0.00     0.19   0.915
  s280                      24.90       0.00       0.29       1.85      22.08       0.64      22.72        0.00     1.69   0.912
  s281                      24.90       0.00       0.29       1.66      22.15       0.86      23.02        0.00     0.41   0.924
  s282                      24.90       0.00       0.29       1.64      22.18       0.88      23.06        0.00     0.21   0.926
  s283                      24.90       0.00       0.29       1.64      22.18       0.89      23.07        0.00     0.41   0.926
  s284                      24.90       0.00       0.29       1.81      22.11       0.68      22.79        0.00     0.19   0.915
  s285                      24.90       0.00       0.29       1.88      22.06       0.61      22.66        0.00     0.55   0.910
  s286                      24.90       0.00       0.29       1.88      22.06       0.61      22.66        0.00     0.55   0.910
  s287                      24.90       0.00       0.29       1.88      22.06       0.61      22.66        0.00     0.55   0.910
  s288                      24.90       0.00       0.29       1.81      22.11       0.68      22.79        0.00     0.19   0.915
  s289                      24.90       0.00       0.29       1.64      22.19       0.89      23.08        0.00     0.21   0.927
  s290                      24.90       0.00       0.29       1.66      22.15       0.86      23.01        0.00     0.41   0.924
  s291                      24.90       0.00       0.29       1.66      22.15       0.86      23.02        0.00     0.20   0.924
  s292                      24.90      45.66       0.30       2.75      63.15       4.37      67.52        0.00     4.40   0.957
  s293                      24.90       0.00       0.29       1.64      22.21       0.90      23.11        0.00     0.21   0.928
  s294                      24.90       0.00       0.29       1.88      22.06       0.60      22.66        0.00     2.22   0.910
  s295                      24.90       0.00       0.32       0.00      24.66       0.00      24.66        0.00     0.41   0.990
  s296                      24.90       0.00       0.32       0.00      24.66       0.00      24.66        0.00     0.41   0.990
  s297                      24.90       8.70       0.32       0.00      33.33       0.00      33.33        0.00     2.19   0.992
  s298                      24.90       0.00       0.29       1.67      22.15       0.86      23.01        0.00     0.20   0.924
  s299                      24.90       0.00       0.29       1.64      22.18       0.89      23.07        0.00     0.21   0.926
  s300                      24.90       0.00       0.29       1.68      22.15       0.85      22.99        0.00     0.20   0.923
  s301                      24.90       0.00       0.29       1.81      22.11       0.68      22.79        0.00     0.19   0.915
  s302                      24.90       2.75       0.29       2.06      24.48       0.70      25.18        0.00     1.77   0.911
  s303                      24.90       0.00       0.32       0.00      24.51       0.00      24.51        0.00     0.20   0.984
  s304                      24.90     149.22       0.30       3.23     156.46      14.21     170.67        0.01    20.97   0.980
  s305                      24.90       0.00       0.32       0.00      24.72       0.00      24.72        0.00     0.21   0.993
  s306                      24.90       0.00       0.32       0.00      24.69       0.00      24.69        0.00     0.21   0.991
  s307                      24.90       0.00       0.32       0.00      24.71       0.00      24.71        0.00     0.21   0.992
  s308                      24.90      23.44       0.32       0.00      48.14       0.00      48.14        0.00     1.17   0.996
  s309                      24.90     104.67       0.32       0.00     129.27       0.00     129.27        0.00     7.26   0.998
  s310                      24.90      26.19       0.32       0.00      50.79       0.00      50.79        0.01     9.60   0.994
  s311                      24.90       0.00       0.29       1.63      22.31       0.91      23.22        0.00     0.21   0.932
  s312                      24.90       0.00       0.29       1.64      22.12       0.88      23.00        0.00     0.21   0.924
  s313                      24.90       0.00       0.29       1.63      22.28       0.89      23.17        0.00     0.21   0.931
  s314                      24.90       0.00       0.29       1.63      22.29       0.90      23.19        0.00     0.21   0.931
  s315                      24.90       0.00       0.29       1.64      22.12       0.88      23.00        0.00     0.21   0.924
  s316                      24.90       0.00       0.05      18.30       1.22       5.36       6.59        0.00     0.21   0.265
  s317                      24.90       0.00       0.29       1.64      22.26       0.88      23.14        0.00     0.21   0.929
  s318                      24.90       0.00       0.29       1.64      22.12       0.88      23.00        0.00     0.21   0.924
  s319                      24.90      87.43       0.09      26.20       5.60      80.69      86.29        0.00     6.59   0.768
  s320                      24.90       0.00       0.29       1.67      22.12       0.85      22.98        0.00     0.20   0.923
  s321                      24.90       0.00       0.29       1.65      22.12       0.87      22.99        0.00     0.21   0.923
  s322                      24.90       0.00       0.29       1.64      22.26       0.88      23.14        0.00     0.21   0.929
  s323                      24.90       3.11       0.05      18.79       1.38       7.84       9.22        0.00     1.11   0.329
  s324                      24.90       0.00       0.04      16.89       1.22       6.83       8.05        0.00     0.13   0.323
  s325                      24.90      36.30       0.29       2.03      54.83       4.10      58.94        0.00     6.28   0.963
  s326                      24.90       3.20       0.05      19.53       1.38       7.16       8.54        0.00     3.75   0.304
  s327                      24.90       0.00       0.32       0.00      24.69       0.00      24.69        0.00     0.21   0.992
  s328                      24.90       0.00       0.32       0.00      24.67       0.00      24.67        0.00     0.62   0.991
  s329                      24.90      12.44       0.06      20.53       1.84      15.02      16.87        0.00     0.45   0.452
  s330                      24.90       0.00       0.29       1.64      22.12       0.89      23.01        0.00     0.21   0.924
  s331                      24.90       0.00       0.29       1.64      22.12       0.89      23.01        0.00     0.21   0.924
  s332                      24.90       0.00       0.29       1.64      22.12       0.89      23.02        0.00     0.21   0.924
  s333                      24.90       0.00       0.32       0.00      24.69       0.00      24.69        0.00     0.21   0.991
  s334                      24.90       0.00       0.04      17.31       1.22       6.39       7.62        0.00     0.38   0.306
  s335                      24.90       0.00       0.04      16.72       1.22       7.01       8.23        0.00     0.14   0.331
  s336                      24.90       4.15       0.05      18.84       1.43       8.78      10.21        0.00     0.91   0.352
  s337                      24.90       0.00       0.04      16.67       1.22       7.06       8.29        0.00     0.14   0.333
  s338                      24.90      21.94       0.07      23.04       2.32      21.51      23.83        0.00     2.57   0.509
  s339                      24.90       6.23       0.05      19.13       1.53      10.49      12.02        0.00     0.69   0.386
  s340                      24.90       0.00       0.32       0.00      24.69       0.00      24.69        0.00     0.21   0.991
  s341                      24.90       0.00       0.32       0.00      24.69       0.00      24.69        0.00     0.21   0.991
  s342                      24.90       0.00       0.32       0.00      24.69       0.00      24.69        0.00     0.21   0.992
  s343                      24.90       0.00       0.32       0.00      24.70       0.00      24.70        0.00     0.21   0.992
  s344                      24.90       0.00       0.32       0.00      24.66       0.00      24.66        0.00     0.62   0.990
  s345                      24.90       0.00       0.32       0.00      24.66       0.00      24.66        0.00     0.62   0.990
  s346                      24.90       0.00       0.32       0.00      24.72       0.00      24.72        0.00     0.21   0.993
  s347                      24.90       0.00       0.32       0.00      24.68       0.00      24.68        0.00     0.42   0.991
  s348                      24.90       0.00       0.32       0.00      24.67       0.00      24.67        0.00     0.21   0.991
  s349                      24.90       0.00       0.32       0.00      24.68       0.00      24.68        0.00     0.21   0.991
  s350                      24.90       0.00       0.32       0.00      24.52       0.00      24.52        0.00     6.04   0.985
  s351                      24.90      39.55       0.32       0.00      64.08       0.00      64.08        0.03    39.19   0.994
  s352                      24.90      13.21       0.08      20.66       3.76      13.67      17.43        0.01    16.74   0.457
  s353                      24.90       0.00       0.06      16.64       2.45       5.80       8.25        0.00     0.87   0.331
  s354                      24.90      22.99       0.08      21.34       4.73      21.87      26.61        0.00     4.13   0.556
  s355                      24.90       0.00       0.05      15.44       2.44       7.09       9.53        0.00     0.15   0.383
  s356                      24.90       0.00       0.29       1.71      22.21       0.79      23.00        0.00     1.81   0.924
  s357                      24.90       0.00       0.29       1.68      22.22       0.83      23.06        0.00     0.61   0.926
  s358                      24.90       0.00       0.29       1.65      22.26       0.87      23.12        0.00     0.21   0.929
  s359                      24.90       0.00       0.05      15.34       2.44       7.22       9.66        0.00     0.15   0.388
  s360                      24.90       0.00       0.29       1.68      22.22       0.83      23.05        0.00     0.41   0.926
  s361                      24.90       0.00       0.29       1.66      22.24       0.85      23.09        0.00     0.20   0.927
  s362                      24.90       0.00       0.29       1.70      22.21       0.81      23.02        0.00     1.01   0.925
  s363                      24.90       0.00       0.29       1.66      22.25       0.86      23.11        0.00     0.20   0.928
  s364                      24.90       0.00       0.29       1.76      22.18       0.74      22.92        0.00     6.57   0.920
  s365                      24.90       0.00       0.29       1.69      22.22       0.82      23.03        0.00     0.61   0.925
  s366                      24.90       0.00       0.29       1.66      22.24       0.85      23.09        0.00     0.20   0.927
  s367                      24.90       0.00       0.29       1.70      22.21       0.81      23.02        0.00     1.01   0.925
  s368                      24.90       0.00       0.29       1.78      22.16       0.72      22.88        0.00     5.34   0.919
  s369                      24.90       0.00       0.29       1.66      22.24       0.85      23.09        0.00     0.20   0.927
  s370                      24.90       0.00       0.29       1.66      22.24       0.85      23.09        0.00     0.20   0.927
  s371                      24.90       0.00       0.29       1.69      22.22       0.82      23.04        0.00     0.61   0.925
  s372                      24.90       0.00       0.29       1.66      22.24       0.85      23.09        0.00     0.20   0.927
  s373                      24.90       0.00       0.32       0.00      24.40       0.00      24.40        0.00     1.63   0.980
  s374                      24.90       0.00       0.32       0.00      24.64       0.00      24.64        0.00     1.24   0.989
  s375                      24.90       0.00       0.29       1.67      22.15       0.85      23.00        0.00     0.20   0.924
  s376                      24.90       0.00       0.29       1.67      22.15       0.85      23.00        0.00     0.20   0.924
  s377                      24.90      13.81       0.29       2.27      34.46       1.61      36.07        0.02    32.14   0.932
  s378                      24.90       0.00       0.32       0.00      24.58       0.00      24.58        0.00     2.45   0.987
  s379                      24.90       0.00       0.32       0.00      24.66       0.00      24.66        0.00     0.62   0.990
  s380                      24.90       0.00       0.32       0.00      24.64       0.00      24.64        0.00     0.83   0.989
  s381                      24.90       0.00       0.32       0.00      24.62       0.00      24.62        0.00     1.03   0.989
  s382                      24.90       5.05       0.32       0.00      29.63       0.00      29.63        0.00     2.19   0.989
  s383                      24.90       0.00       0.32       0.00      24.51       0.00      24.51        0.00     0.20   0.984
  s384                      24.90       5.74       0.32       0.00      30.36       0.00      30.36        0.00     1.00   0.991
  s385                      24.90       0.00       0.32       0.00      24.69       0.00      24.69        0.00     0.21   0.991
  s386                      24.90       0.00       0.29       1.85      22.08       0.63      22.71        0.00     0.37   0.912
  s387                      24.90       0.00       0.29       1.81      22.11       0.68      22.79        0.00     0.19   0.915
  s388                      24.90       0.00       0.32       0.00      24.66       0.00      24.66        0.00     0.41   0.990
  s389                      24.90       0.00       0.32       0.00      24.62       0.00      24.62        0.00     0.62   0.989
  s390                      24.90       0.00       0.32       0.00      24.54       0.00      24.54        0.00     3.04   0.986
  s391                      24.90      11.60       0.32       0.00      36.11       0.00      36.11        0.01    10.03   0.989
  s392                      24.90       0.00       0.29       1.88      22.04       0.62      22.66        0.00     0.19   0.910
  s393                      24.90       0.00       0.29       1.96      21.99       0.53      22.52        0.00     0.55   0.905
  s394                      24.90       0.00       0.29       2.00      21.97       0.49      22.46        0.00     0.90   0.902
  s395                      24.90       0.00       0.29       1.98      21.98       0.51      22.49        0.00     0.73   0.903
  s396                      24.90       0.00       0.29       1.93      22.01       0.56      22.57        0.00     0.37   0.907
  s397                      24.90       0.00       0.29       1.85      22.08       0.63      22.71        0.00     0.37   0.912
  s398                      24.90       0.00       0.29       1.88      22.04       0.62      22.66        0.00     0.19   0.910
  s399                      24.90      26.39       0.32       0.00      51.10       0.00      51.10        0.00     2.91   0.996
  s400                      24.90     119.64       0.30       3.27     129.68      11.50     141.18        0.00     1.17   0.977
  s401                      24.90       0.00       0.29       1.64      22.12       0.89      23.01        0.00     0.21   0.924
  s402                      24.90       0.00       0.29       1.64      22.12       0.89      23.02        0.00     0.21   0.924
  s403                      24.90      15.63       0.32       0.00      40.31       0.00      40.31        0.00     0.99   0.994
  s404                      24.90       0.00       0.29       1.63      22.30       0.90      23.21        0.00     0.21   0.932
  s405                      24.90       0.00       0.29       1.65      22.25       0.87      23.12        0.00     0.61   0.929
  s406                      24.90       0.00       0.29       1.65      22.24       0.86      23.10        0.00     0.81   0.928
  s407                      24.90       0.00       0.29       1.63      22.30       0.90      23.21        0.00     0.21   0.932
  s408                      24.90       0.00       0.29       1.63      22.29       0.90      23.19        0.00     0.21   0.931
  s409                      24.90       0.00       0.32       0.00      24.69       0.00      24.69        0.00     0.83   0.991
  s410                      24.90       0.00       0.29       1.67      22.24       0.85      23.09        0.00     1.02   0.927
  s411                      24.90       0.00       0.29       1.68      22.22       0.83      23.05        0.00     2.64   0.926
  s412                      24.90       0.00       0.29       1.63      22.31       0.90      23.20        0.00     0.21   0.932
  s413                      24.90       0.00       0.05      14.60       2.50       8.03      10.53        0.00     0.16   0.423
  s414                      24.90       0.00       0.05      14.64       2.50       7.99      10.49        0.00     0.16   0.421
  s415                      24.90     250.02       0.32       0.00     274.61       0.00     274.61        0.02    19.42   0.999
  s416                      24.90       0.00       0.29       1.63      22.33       0.91      23.25        0.00     0.21   0.934
  s417                      24.90      21.74       0.29       2.34      41.69       2.34      44.03        0.01    18.07   0.944
  s418                      24.90       0.00       0.29       1.63      22.33       0.91      23.24        0.00     0.21   0.933
  s419                      24.90       0.00       0.29       1.87      21.94       0.62      22.56        0.00     0.37   0.906
  s420                      24.90       0.00       0.29       1.92      21.91       0.56      22.47        0.00     0.71   0.903
  s421                      24.90       0.00       0.29       1.87      21.94       0.62      22.56        0.00     0.37   0.906
  s422                      24.90       0.00       0.29       1.83      21.97       0.66      22.64        0.00     0.19   0.909
  s423                      24.90       0.00       0.29       1.89      21.93       0.60      22.52        0.00     2.71   0.905
  s424                      24.90       9.28       0.29       1.91      30.45       1.53      31.98        0.00     1.37   0.936
  s425                      24.90      42.27       0.30       2.64      60.25       4.11      64.36        0.00     3.26   0.958
  s426                      24.90       0.00       0.29       1.67      22.23       0.84      23.07        0.00     0.20   0.927
  s427                      24.90       0.00       0.29       1.69      22.21       0.82      23.03        0.00     0.20   0.925
  s428                      24.90       0.00       0.29       1.65      22.26       0.87      23.12        0.00     0.21   0.929
  s429                      24.90       0.00       0.29       1.70      22.21       0.81      23.02        0.00     1.82   0.924
  s430                      24.90       0.00       0.29       1.64      22.28       0.88      23.17        0.00     0.21   0.930
  s431                      24.90       0.00       0.29       1.72      22.07       0.78      22.85        0.00     1.79   0.918
  s432                      24.90       0.00       0.29       1.70      22.10       0.81      22.91        0.00     3.22   0.920
  s433                      24.90       0.00       0.29       1.63      22.30       0.91      23.21        0.00     0.21   0.932
  s434                      24.90       4.63       0.29       1.77      26.38       1.20      27.57        0.00     1.20   0.934
  s435                      24.90       0.00       0.29       1.72      22.08       0.78      22.86        0.01     8.76   0.918
  s436                      24.90       0.00       0.29       1.64      22.10       0.89      23.00        0.00     0.21   0.924
  s437                      24.90       0.00       0.29       1.64      22.10       0.89      23.00        0.00     0.21   0.924
  s438                      24.90       0.00       0.29       1.64      22.10       0.90      23.00        0.00     0.21   0.924
  s439                      24.90       0.63       0.32       0.00      25.28       0.00      25.28        0.00     3.02   0.990
  s440                      24.90       0.00       0.04      16.24       1.22       7.56       8.79        0.00     0.15   0.353
  s441                      24.90       0.00       0.32       0.00      24.61       0.00      24.61        0.00     2.06   0.988
  s442                      24.90       0.00       0.32       0.00      24.55       0.00      24.55        0.00     4.87   0.986
  s443                      24.90       0.00       0.29       1.70      22.10       0.81      22.91        0.00     1.21   0.920
  s444                      24.90       0.00       0.32       0.00      24.66       0.00      24.66        0.00     0.41   0.990
  s445                      24.90       0.00       0.32       0.00      24.66       0.00      24.66        0.00     0.41   0.990
  s446                      24.90       0.00       0.32       0.00      24.69       0.00      24.69        0.00     0.21   0.991
  s447                      24.90      11.89       0.32       0.00      36.48       0.00      36.48        0.00     1.80   0.991
  s448                      24.90       0.00       0.29       1.67      22.11       0.85      22.97        0.00     0.20   0.922
  s449                      24.90       0.00       0.29       1.65      22.11       0.87      22.98        0.00     0.21   0.923
  s450                      24.90       0.00       0.29       1.66      22.11       0.86      22.97        0.00     0.20   0.923
  s451                      24.90      48.93       0.30       2.76      66.11       4.67      70.79        0.00     0.59   0.959
  s452                      24.90       0.00       0.32       0.00      24.66       0.00      24.66        0.00     0.41   0.990
  s453                      24.90      16.53       0.32       0.00      41.19       0.00      41.19        0.00     2.37   0.994
  s454                      24.90       0.00       0.29       1.64      22.10       0.88      22.99        0.00     0.21   0.923
  s455                      24.90       0.00       0.29       1.64      22.11       0.88      22.98        0.00     0.21   0.923
  s456                      24.90       0.00       0.29       1.65      22.11       0.87      22.98        0.00     0.21   0.923
  s457                      24.90       0.00       0.29       1.65      22.11       0.87      22.98        0.00     0.21   0.923
  s458                      24.90       0.00       0.29       1.65      22.11       0.87      22.98        0.00     0.21   0.923
  s459                      24.90    8820.29       0.32       0.00    8845.84       0.00    8845.84        0.28   267.23   1.000
  s460                      24.90       0.00       0.29       1.66      22.23       0.86      23.09        0.00     0.20   0.927
  s461                      24.90       0.00       0.29       1.81      22.11       0.68      22.79        0.00     0.19   0.915
  s462                      24.90       0.00       0.29       1.83      21.97       0.66      22.64        0.00     0.19   0.909
  s463                      24.90     120.87       0.30       3.55     130.93      11.01     141.94        0.00     4.33   0.974
  s464                      24.90     428.51       0.30       3.66     407.94      41.62     449.57        0.27   263.05   0.992
  s465                      24.90      56.04       0.32       0.00      80.58       0.00      80.58        0.00     4.13   0.996
  s466                      24.90      19.33       0.29       1.84      39.61       2.60      42.21        0.00     0.47   0.954
  s467                      24.90      14.72       0.29       1.86      35.44       2.11      37.55        0.00     2.37   0.948
  s468                      24.90       0.00       0.29       1.85      22.08       0.63      22.71        0.00     0.37   0.912
  s469                      24.90       0.00       0.29       1.81      22.11       0.68      22.79        0.00     0.19   0.915
  s470                      24.90       0.00       0.05      15.25       2.50       7.24       9.74        0.00     0.29   0.391
  s471                      24.90       0.00       0.05      15.23       2.50       7.26       9.76        0.00     0.44   0.392
  s472                      24.90       0.00       0.05      15.12       2.50       7.38       9.88        0.00     0.45   0.397
  s473                      24.90       0.00       0.05      15.12       2.50       7.38       9.88        0.00     0.45   0.397
  s474                      24.90       0.00       0.06      15.81       2.50       6.63       9.13        0.00     1.08   0.366
  s475                      24.90       0.00       0.06      15.72       2.50       6.73       9.22        0.00     0.82   0.370
  s476                      24.90       0.00       0.06      15.72       2.50       6.73       9.22        0.00     0.82   0.370
  s477                      24.90       0.00       0.05      15.55       2.50       6.92       9.41        0.00     0.70   0.378
  s478                      24.90       1.12       0.07      17.98       2.60       5.42       8.02        0.00     6.70   0.308
  s479                      24.90       0.00       0.06      15.61       2.50       6.85       9.35        0.00     0.28   0.375
  s480                      24.90       0.00       0.05      14.83       2.50       7.72      10.22        0.00     0.16   0.410
  s481                      24.90       0.00       0.05      15.39       2.50       7.10       9.60        0.00     0.43   0.385
  s482                      24.90       0.00       0.06      17.52       2.49       4.87       7.36        0.00     0.10   0.295
  s483                      24.90      19.43       0.10      24.33       4.44      15.50      19.94        0.06    79.11   0.450
  s484                      24.90       0.00       0.05      14.98       2.50       7.55      10.05        0.00     0.15   0.404
  s485                      24.90       0.00       0.05      15.25       2.50       7.24       9.74        0.00     0.29   0.391
  s486                      24.90       0.00       0.06      15.76       2.50       6.69       9.18        0.00     1.09   0.369
  s487                      24.90       0.00       0.06      15.92       2.50       6.52       9.01        0.00     1.32   0.362
  s488                      24.90       0.00       0.05      15.07       2.50       7.43       9.93        0.00     0.15   0.399
  s489                      24.90       0.00       0.05      15.39       2.50       7.10       9.60        0.00     0.43   0.385
  s490                      24.90       9.22       0.09      23.00       3.41       7.63      11.04        0.05    63.37   0.324
  s491                      24.90    5883.73       0.23      45.69     595.56    5272.98    5868.54        0.15   180.54   0.993
  s492                      24.90     670.92       0.30       3.67     626.35      65.86     692.20        0.15   184.21   0.995
  s493                      24.90       0.00       0.32       0.00      24.66       0.00      24.66        0.00     0.41   0.990
  s494                      24.90       0.00       0.32       0.00      24.70       0.00      24.70        0.00     0.21   0.992
  s495                      24.90       0.00       0.29       1.68      22.27       0.83      23.10        0.00     0.61   0.928
  s496                      24.90       0.00       0.08      18.83       2.48       3.53       6.02        0.01     8.94   0.242
  s497                      24.90    7353.38       0.19      38.05     743.69    6600.83    7344.52        0.14   180.20   0.995
  s498                      24.90    1446.26       0.30       3.77    1324.25     143.29    1467.54        0.14   180.36   0.998
  s499                      24.90       0.00       0.32       0.00      24.69       0.00      24.69        0.00     0.21   0.991
  s500                      24.90       0.00       0.05      14.98       2.50       7.55      10.05        0.00     0.15   0.404
  s501                      24.90       0.00       0.06      15.82       2.50       6.62       9.11        0.00     0.40   0.366
  s502                      24.90       0.00       0.06      17.33       2.49       5.06       7.55        0.00     3.65   0.303
  s503                      24.90       0.00       0.05      14.79       2.50       7.76      10.26        0.00     0.16   0.412
  s504                      24.90       0.00       0.05      14.98       2.50       7.55      10.05        0.00     0.15   0.404
  s505                      24.90       8.95       0.09      22.97       3.38       7.43      10.81        0.13   175.81   0.319
  s506                      24.90       0.00       0.32       0.00      24.68       0.00      24.68        0.00     0.21   0.991
  s507                      24.90      30.66       0.32       0.00      55.22       0.00      55.22        0.03    37.55   0.994
  s508                      24.90       0.00       0.29       1.68      22.21       0.82      23.03        0.00     0.40   0.925
  s509                      24.90       0.00       0.29       1.69      22.20       0.81      23.01        0.00     5.65   0.924
  s510                      24.90       0.00       0.32       0.00      24.70       0.00      24.70        0.00     0.21   0.992
  s511                      24.90       0.00       0.32       0.00      24.66       0.00      24.66        0.00     0.41   0.990
  s512                      24.90       0.00       0.32       0.00      24.66       0.00      24.66        0.00     0.41   0.990
  s513                      24.90       6.81       0.32       0.00      31.38       0.00      31.38        0.00     6.18   0.989
  s514                      24.90       0.00       0.32       0.00      24.62       0.00      24.62        0.00     0.62   0.989
  s515                      24.90       0.00       0.32       0.00      24.63       0.00      24.63        0.00     0.62   0.989
  s516                      24.90       0.00       0.29       1.64      22.26       0.88      23.14        0.00     0.21   0.929
  s517                      24.90       0.00       0.32       0.00      24.69       0.00      24.69        0.00     0.21   0.991
  s518                      24.90       0.00       0.32       0.00      24.64       0.00      24.64        0.00     2.07   0.990
  s519                      24.90       0.00       0.32       0.00      24.62       0.00      24.62        0.00     2.06   0.989
  s520                      24.90       0.00       0.32       0.00      24.70       0.00      24.70        0.00     0.21   0.992
  s521                      24.90       0.00       0.29       1.67      22.22       0.83      23.05        0.00     3.04   0.926
  s522                      24.90      16.62       0.29       2.07      37.05       2.11      39.16        0.00     0.98   0.943
  s523                      24.90       0.00       0.29       1.65      22.11       0.87      22.98        0.00     0.21   0.923
  s524                      24.90       0.00       0.32       0.00      24.66       0.00      24.66        0.00     0.21   0.990
  s525                      24.90       0.00       0.32       0.00      24.68       0.00      24.68        0.00     0.21   0.991
  s526                      24.90       0.00       0.29       1.66      22.23       0.85      23.08        0.00     1.02   0.927
  s527                      24.90       0.00       0.29       1.63      22.30       0.90      23.20        0.00     0.21   0.932
  s528                      24.90       0.00       0.32       0.00      24.67       0.00      24.67        0.00     0.21   0.991
  s529                      24.90       0.00       0.32       0.00      24.68       0.00      24.68        0.00     0.21   0.991
  s530                      24.90       0.00       0.29       1.65      22.11       0.87      22.98        0.00     0.21   0.923
  s531                      24.90       0.00       0.32       0.00      24.69       0.00      24.69        0.00     0.21   0.991
  s532                      24.90       0.00       0.32       0.00      24.62       0.00      24.62        0.00     2.06   0.989
  s533                      24.90       0.00       0.32       0.00      24.66       0.00      24.66        0.00     0.83   0.990
  s534                      24.90      10.20       0.32       0.00      34.84       0.00      34.84        0.00     4.59   0.993
  s535                      24.90       0.00       0.29       1.67      22.22       0.85      23.07        0.00     1.02   0.927
  s536                      24.90       0.00       0.29       1.69      22.20       0.81      23.01        0.00     2.02   0.924
  s537                      24.90       0.00       0.29       1.63      22.28       0.89      23.17        0.00     0.21   0.931
  s538                      24.90       0.00       0.29       1.63      22.29       0.90      23.18        0.00     0.21   0.931
  s539                      24.90       0.00       0.29       1.63      22.28       0.89      23.17        0.00     0.21   0.931
  s540                      24.90       0.00       0.29       1.63      22.30       0.91      23.21        0.00     0.21   0.932
  s541                      24.90       0.00       0.29       1.63      22.28       0.90      23.18        0.00     0.21   0.931
  s542                      24.90       0.00       0.29       1.64      22.27       0.89      23.16        0.00     0.21   0.930
  s543                      24.90       0.00       0.29       1.71      22.14       0.80      22.94        0.00     3.03   0.921
  s544                      24.90       0.00       0.29       1.70      22.14       0.81      22.96        0.00     2.83   0.922
  s545                      24.90       0.00       0.29       1.69      22.14       0.83      22.97        0.00     1.01   0.923
  s546                      24.90       0.00       0.29       1.72      22.14       0.79      22.93        0.00     5.64   0.921
  s547                      24.90       0.00       0.29       1.69      22.10       0.81      22.92        0.00     0.81   0.920
  s548                      24.90       0.00       0.29       1.65      22.16       0.87      23.03        0.00     0.21   0.925
  s549                      24.90       0.00       0.29       1.67      22.22       0.83      23.05        0.00     0.41   0.926
  s550                      24.90       0.00       0.29       1.71      22.19       0.79      22.99        0.00     1.01   0.923
  s551                      24.90       0.00       0.29       1.72      22.18       0.78      22.96        0.00     3.80   0.922
  s552                      24.90      14.80       0.29       2.07      35.41       1.92      37.33        0.00     1.57   0.940
  s553                      24.90       0.00       0.29       1.69      22.10       0.81      22.92        0.00     0.81   0.920
  s554                      24.90       0.00       0.29       1.69      22.10       0.81      22.92        0.00     0.81   0.920
  s555                      24.90       0.00       0.29       1.64      22.27       0.89      23.16        0.00     0.21   0.930
  s556                      24.90       0.00       0.29       1.71      22.14       0.80      22.95        0.00     1.01   0.922
  s557                      24.90       0.00       0.29       1.73      22.14       0.78      22.92        0.00     6.84   0.920
  s558                      24.90       0.00       0.29       1.65      22.24       0.87      23.11        0.00     0.21   0.928
  s559                      24.90       0.00       0.29       1.68      22.27       0.83      23.10        0.00     0.61   0.928
  s560                      24.90       0.00       0.29       1.67      22.22       0.84      23.05        0.00     0.41   0.926
  s561                      24.90       0.00       0.32       0.00      24.62       0.00      24.62        0.00     0.41   0.989
  s562                      24.90       0.00       0.32       0.00      24.68       0.00      24.68        0.00     0.21   0.991
  s563                      24.90       0.00       0.29       1.64      22.26       0.88      23.14        0.00     0.21   0.929
  s564                      24.90       0.00       0.29       1.64      22.25       0.87      23.12        0.00     0.21   0.929
  s565                      24.90      19.68       0.29       1.97      39.88       2.50      42.38        0.01     9.51   0.951
  s566                      24.90       0.00       0.29       1.65      22.24       0.87      23.11        0.00     0.21   0.928
  s567                      24.90       0.00       0.29       1.70      22.14       0.81      22.96        0.00     0.61   0.922
  s568                      24.90      55.92       0.30       2.83      72.42       5.32      77.74        0.01     8.28   0.962
  s569                      24.90       0.00       0.29       1.67      22.15       0.85      23.00        0.00     1.02   0.924
  s570                      24.90       0.00       0.29       1.66      22.16       0.87      23.02        0.00     0.61   0.925
  s571                      24.90       0.00       0.29       1.65      22.17       0.88      23.05        0.00     0.21   0.926
  s572                      24.90       0.00       0.29       1.65      22.17       0.88      23.05        0.00     0.21   0.926
  s573                      24.90       0.00       0.05      14.88       2.50       7.66      10.16        0.00     0.16   0.408
[...]
  SWD4031487                  0.57      0.60      0.57      0.62         0.57
  SWD4031500                  0.24      0.25      0.26      0.21         0.20
  SWD4031503                  0.25      0.26      0.25      0.28         0.25
  SWD4032472                  0.04      0.12      0.05      0.14         0.03
  SWD4032016                  0.01      0.01      0.01      0.02         0.01
  SWD4032019                  0.01      0.01      0.18      0.01         0.01
  SWD4032073                  0.01      0.01      0.03      0.01         0.01
  SWD4032075                  0.10      0.10      0.18      0.01         0.01
  SWD4032177                  0.01      0.01      0.25      0.01         0.01
  SWD4036081                  0.01      0.01      0.51      0.01         0.01
  SWD4031928                  0.19      0.21      0.19      0.22         0.19
  SWD4032709                  0.01      0.30      0.01      0.32         0.01
  SWD4109723                  0.01      0.01      0.04      0.01         0.01
  SWD4031538                  0.02      0.12      0.02      0.15         0.02
  SWD4100261                  0.23      0.23      0.24      0.24         0.22
  SWD4115249                  0.10      0.10      0.55      0.01         0.01
  SWD4095501                  1.32      1.32      1.54      0.01         0.01
  SWD4031308                  0.20      0.20      0.26      0.01         0.01
  SWD4032066                  0.05      0.05      0.14      0.01         0.01
  SWD4031443                  0.15      0.15      0.27      0.01         0.01
  SWD4113765                  1.27      1.27      2.66      0.01         0.01
  SWD4031933                  0.09      0.09      0.20      0.01         0.01
  SWD4031938                  0.23      0.24      0.23      0.27         0.23
  SWD4115532                  0.01      0.01      0.13      0.01         0.01
  SWD4115531                  0.15      0.15      2.65      0.01         0.01
  SWD4115535                  0.39      0.39      0.40      0.01         0.01
  SWD4116460                  0.08      0.08      0.22      0.01         0.01
  SWD4116462                  0.19      0.19      0.99      0.01         0.01
  SWD4135981                  1.41      1.41      1.92      0.01         0.01
  SWD4135982                  1.19      1.19      1.41      0.01         0.01
  SWD4136060                  0.15      0.15      0.19      0.01         0.01
  SWD4031550                  0.51      0.51      0.52      0.26         0.26
  SWD4032010                  0.11      0.14      0.13      0.14         0.10
  SWD4032464                  0.18      0.18      0.28      0.01         0.01
  SWD4031697                  0.18      0.18      0.23      0.01         0.01
  SWD40316101                 0.20      0.20      0.21      0.16         0.16
  SWD4031934                  0.20      0.20      0.21      0.01         0.01
  SWD4115250                  0.52      0.52      0.56      0.01         0.01
  SWD4115251                  0.07      0.07      0.19      0.01         0.01
  SWD4115601                  0.14      0.14      0.15      0.01         0.01
  SWD4115602                  0.13      0.13      0.20      0.01         0.01
  SWD4031605                  0.01      0.01      0.10      0.01         0.01
  SWD4031302                  0.11      0.11      0.17      0.01         0.01
  SWD4036082                  0.22      0.22      0.26      0.21         0.21
  SWD4031515                  0.27      0.27      0.32      0.01         0.01
  SWD4031569                  0.01      0.01      0.08      0.01         0.01
  SWD4032060                  0.01      0.01      0.10      0.01         0.01
  SWD4032500                  0.01      0.01      0.11      0.01         0.01
  SWD4117242                  0.01      0.01      0.02      0.01         0.01
  SWD4031393                  0.35      0.36      0.37      0.18         0.16
  SWD4031592                  0.13      0.13      0.28      0.01         0.01
  SWD4095521                  0.38      0.38      0.40      0.21         0.21
  SWD4031403                  0.01      0.01      0.31      0.01         0.01
  SWD4031693                  0.01      0.01      0.01      0.03         0.01
  SWD4031439                  0.01      0.01      0.36      0.01         0.01
  SWD4062128                  0.14      0.26      0.14      0.26         0.14
  SWD4072980                  0.08      0.21      0.08      0.22         0.08
  SWD4031280                  0.14      0.14      0.14      0.15         0.13
  SWD4031282                  0.15      0.18      0.16      0.19         0.15
  SWD4032574                  0.01      0.01      0.02      0.01         0.01
  SWD4032025                  0.27      0.28      0.27      0.29         0.27
  SWD4031492                  0.58      0.58      0.59      0.13         0.13
  SWD4115140                  0.33      0.33      0.34      0.11         0.11
  SWD4089020                  0.18      0.18      0.21      0.01         0.01
  SWD4031923                  0.21      0.21      0.39      0.01         0.01
  SWD4136288                  0.56      0.56      0.89      0.01         0.01
  SWD4116440                  0.01      0.01      0.01      0.06         0.01
  SWD4136319                  0.11      0.16      0.11      0.24         0.11
  SWD4136323                  0.13      0.13      0.16      0.01         0.01
  SWD4136320                  0.01      0.18      0.01      0.19         0.01
  SWD41243411                 2.65      2.65      2.66      0.01         0.01
  SWD4136975                  0.01      0.01      0.13      0.01         0.01
  SWD4031531                  0.22      0.22      0.29      0.01         0.01
  SWD4031510                  0.01      0.01      0.26      0.01         0.01
  SWD4031379                  1.00      1.00      1.00      0.01         0.01
  SWD4031700                  0.01      0.01      0.01      0.04         0.01
  SWD4031490                  0.01      0.01      0.02      0.01         0.01
  SWD4031309                  0.01      0.01      0.12      0.01         0.01
  SWD41243412                 0.16      0.18      0.16      0.19         0.16
  SMD4001188                  0.24      0.31      0.24      0.32         0.24
  SMD4001189                  0.32      0.32      0.34      0.31         0.30
  SMD4001190                  0.31      0.34      0.31      0.35         0.31
  SMD4005820                  0.02      0.02      0.14      0.01         0.01
  SMD4001200                  0.21      0.21      0.28      0.01         0.01
  SMD4001180                  0.01      0.01      0.19      0.01         0.01
  SWD40316102                 0.01      0.21      0.01      0.22         0.01
  SWD40315291                 0.11      0.11      0.12      0.01         0.01
  SBP4013682                  0.20      0.20      0.21      0.01         0.01
  SBP4009706                  0.01      0.01      1.79      0.01         0.01
  SBP40098201                 0.30      0.30      0.60      0.01         0.01
  SBP40098202                 0.30      0.30      0.60      0.01         0.01
  SBP4013558                  0.01      0.01      0.01      0.20         0.01
  SBP4013681                  0.01      0.01      0.20      0.01         0.01
  SBP40091011                 0.01      0.01      0.01      0.19         0.01
  SBP40184802                 0.01      0.01      0.01      0.19         0.01
  
  
  ************
  Node Results
  ************
  
  <<< Node SBP40128811 >>>
  ----------------------------------------------------------------
                           Inflow  Flooding     Depth      Head
  Date        Time            LPS       LPS    meters    meters
  ----------------------------------------------------------------
   07/06/2021 23:32:00      0.000     0.000     0.000     2.900
   07/06/2021 23:34:00      0.000     0.000     0.000     2.900
   07/06/2021 23:36:00      0.000     0.000     0.000     2.900
   07/06/2021 23:38:00      0.000     0.000     0.000     2.900
   07/06/2021 23:40:00      0.000     0.000     0.000     2.900
   07/06/2021 23:42:00      0.000     0.000     0.000     2.900
   07/06/2021 23:44:00      0.000     0.000     0.000     2.900
   07/06/2021 23:46:00      0.000     0.000     0.000     2.900
   07/06/2021 23:48:00      0.000     0.000     0.000     2.900
   07/06/2021 23:50:00      0.000     0.000     0.000     2.900
   07/06/2021 23:52:00      0.649     0.000     0.001     2.901
   07/06/2021 23:54:00     26.841     0.000     0.015     2.915
   07/06/2021 23:56:00    443.504     0.000     0.095     2.995
   07/06/2021 23:58:00    590.798     0.000     0.116     3.016
   07/07/2021 00:00:00   1769.187     0.000     0.240     3.140
   07/07/2021 00:02:00   3660.786     0.000     0.390     3.290
   07/07/2021 00:04:00   4491.904     0.000     0.447     3.347
   07/07/2021 00:06:00   4563.291     0.000     0.452     3.352
   07/07/2021 00:08:00   3934.154     0.000     0.409     3.309
   07/07/2021 00:10:00   3238.203     0.000     0.359     3.259
   07/07/2021 00:12:00   2748.459     0.000     0.322     3.222
   07/07/2021 00:14:00   2022.536     0.000     0.263     3.163
   07/07/2021 00:16:00   1519.292     0.000     0.217     3.117
   07/07/2021 00:18:00   1093.833     0.000     0.174     3.074
   07/07/2021 00:20:00    856.431     0.000     0.148     3.048
   07/07/2021 00:22:00    692.040     0.000     0.128     3.028
   07/07/2021 00:24:00    556.703     0.000     0.111     3.011
   07/07/2021 00:26:00    452.742     0.000     0.097     2.997
   07/07/2021 00:28:00    380.291     0.000     0.086     2.986
   07/07/2021 00:30:00    327.356     0.000     0.078     2.978
   07/07/2021 00:32:00    282.439     0.000     0.071     2.971
   07/07/2021 00:34:00    243.339     0.000     0.064     2.964
   07/07/2021 00:36:00    210.067     0.000     0.058     2.958
   07/07/2021 00:38:00    181.913     0.000     0.053     2.953
   07/07/2021 00:40:00    158.423     0.000     0.048     2.948
   07/07/2021 00:42:00    141.355     0.000     0.045     2.945
   07/07/2021 00:44:00    131.149     0.000     0.042     2.942
   07/07/2021 00:46:00    126.578     0.000     0.041     2.941
   07/07/2021 00:48:00    126.021     0.000     0.041     2.941
   07/07/2021 00:50:00    125.742     0.000     0.041     2.941
   07/07/2021 00:52:00    126.625     0.000     0.041     2.941
   07/07/2021 00:54:00    131.252     0.000     0.042     2.942
   07/07/2021 00:56:00    137.917     0.000     0.044     2.944
   07/07/2021 00:58:00    145.550     0.000     0.045     2.945
   07/07/2021 01:00:00    152.405     0.000     0.047     2.947
   07/07/2021 01:02:00    157.066     0.000     0.048     2.948
   07/07/2021 01:04:00    157.940     0.000     0.048     2.948
   07/07/2021 01:06:00    154.242     0.000     0.047     2.947
   07/07/2021 01:08:00    146.606     0.000     0.046     2.946
   07/07/2021 01:10:00    136.462     0.000     0.044     2.944
   07/07/2021 01:12:00    125.582     0.000     0.041     2.941
   07/07/2021 01:14:00    115.267     0.000     0.039     2.939
   07/07/2021 01:16:00    105.941     0.000     0.037     2.937
   07/07/2021 01:18:00     97.604     0.000     0.035     2.935
   07/07/2021 01:20:00     89.818     0.000     0.033     2.933
   07/07/2021 01:22:00     82.367     0.000     0.031     2.931
   07/07/2021 01:24:00     75.311     0.000     0.029     2.929
   07/07/2021 01:26:00     68.749     0.000     0.028     2.928
   07/07/2021 01:28:00     62.747     0.000     0.026     2.926
   07/07/2021 01:30:00     57.319     0.000     0.024     2.924
   07/07/2021 01:32:00     52.464     0.000     0.023     2.923
   07/07/2021 01:34:00     48.142     0.000     0.022     2.922
   07/07/2021 01:36:00     44.280     0.000     0.021     2.921
   07/07/2021 01:38:00     40.794     0.000     0.019     2.919
   07/07/2021 01:40:00     37.605     0.000     0.018     2.918
   07/07/2021 01:42:00     34.687     0.000     0.017     2.917
   07/07/2021 01:44:00     31.966     0.000     0.017     2.917
   07/07/2021 01:46:00     29.477     0.000     0.016     2.916
   07/07/2021 01:48:00     27.278     0.000     0.015     2.915
   07/07/2021 01:50:00     25.342     0.000     0.014     2.914
   07/07/2021 01:52:00     23.617     0.000     0.014     2.914
   07/07/2021 01:54:00     22.060     0.000     0.013     2.913
   07/07/2021 01:56:00     20.643     0.000     0.012     2.912
   07/07/2021 01:58:00     19.351     0.000     0.012     2.912
   07/07/2021 02:00:00     18.174     0.000     0.011     2.911
   07/07/2021 02:02:00     17.105     0.000     0.011     2.911
   07/07/2021 02:04:00     16.132     0.000     0.010     2.910
   07/07/2021 02:06:00     15.246     0.000     0.010     2.910
   07/07/2021 02:08:00     14.441     0.000     0.010     2.910
   07/07/2021 02:10:00     13.705     0.000     0.009     2.909
   07/07/2021 02:12:00     13.034     0.000     0.009     2.909
   07/07/2021 02:14:00     12.420     0.000     0.009     2.909
   07/07/2021 02:16:00     11.857     0.000     0.009     2.909
   07/07/2021 02:18:00     11.337     0.000     0.008     2.908
   07/07/2021 02:20:00     10.857     0.000     0.008     2.908
   07/07/2021 02:22:00     10.409     0.000     0.008     2.908
   07/07/2021 02:24:00      9.992     0.000     0.008     2.908
   07/07/2021 02:26:00      9.601     0.000     0.007     2.907
   07/07/2021 02:28:00      9.234     0.000     0.007     2.907
   07/07/2021 02:30:00      8.888     0.000     0.007     2.907
  
  
  <<< Node SBP40184801 >>>
  ----------------------------------------------------------------
                           Inflow  Flooding     Depth      Head
  Date        Time            LPS       LPS    meters    meters
  ----------------------------------------------------------------
   07/06/2021 23:32:00     65.000     0.000     0.000     2.860
   07/06/2021 23:34:00     65.000     0.000     0.000     2.860
   07/06/2021 23:36:00     65.000     0.000     0.000     2.860
   07/06/2021 23:38:00     65.000     0.000     0.000     2.860
   07/06/2021 23:40:00     65.000     0.000     0.000     2.860
   07/06/2021 23:42:00     65.000     0.000     0.000     2.860
   07/06/2021 23:44:00     65.000     0.000     0.000     2.860
   07/06/2021 23:46:00     65.000     0.000     0.000     2.860
   07/06/2021 23:48:00     65.001     0.000     0.000     2.860
   07/06/2021 23:50:00     65.010     0.000     0.000     2.860
   07/06/2021 23:52:00     66.089     0.000     0.002     2.862
   07/06/2021 23:54:00    114.270     0.000     0.030     2.890
   07/06/2021 23:56:00    242.152     0.000     0.071     2.931
   07/06/2021 23:58:00    928.293     0.000     0.204     3.064
   07/07/2021 00:00:00   2854.855     0.000     0.445     3.305
   07/07/2021 00:02:00   4508.066     0.000     0.607     3.467
   07/07/2021 00:04:00   4895.828     0.000     0.642     3.502
   07/07/2021 00:06:00   4976.249     0.000     0.649     3.509
   07/07/2021 00:08:00   4468.200     0.000     0.603     3.463
   07/07/2021 00:10:00   3962.692     0.000     0.556     3.416
   07/07/2021 00:12:00   3759.947     0.000     0.537     3.397
   07/07/2021 00:14:00   3049.024     0.000     0.465     3.325
   07/07/2021 00:16:00   2447.548     0.000     0.401     3.261
   07/07/2021 00:18:00   2079.198     0.000     0.358     3.218
   07/07/2021 00:20:00   1814.699     0.000     0.326     3.186
   07/07/2021 00:22:00   1597.762     0.000     0.298     3.158
   07/07/2021 00:24:00   1429.209     0.000     0.276     3.136
   07/07/2021 00:26:00   1303.445     0.000     0.259     3.119
   07/07/2021 00:28:00   1199.211     0.000     0.244     3.104
   07/07/2021 00:30:00   1103.741     0.000     0.230     3.090
   07/07/2021 00:32:00   1011.724     0.000     0.216     3.076
   07/07/2021 00:34:00    911.090     0.000     0.201     3.061
   07/07/2021 00:36:00    818.989     0.000     0.186     3.046
   07/07/2021 00:38:00    732.923     0.000     0.172     3.032
   07/07/2021 00:40:00    660.253     0.000     0.159     3.019
   07/07/2021 00:42:00    596.167     0.000     0.147     3.007
   07/07/2021 00:44:00    551.275     0.000     0.139     2.999
   07/07/2021 00:46:00    517.893     0.000     0.132     2.992
   07/07/2021 00:48:00    494.060     0.000     0.128     2.988
   07/07/2021 00:50:00    488.181     0.000     0.127     2.987
   07/07/2021 00:52:00    504.073     0.000     0.130     2.990
   07/07/2021 00:54:00    531.508     0.000     0.135     2.995
   07/07/2021 00:56:00    571.504     0.000     0.143     3.003
   07/07/2021 00:58:00    604.750     0.000     0.149     3.009
   07/07/2021 01:00:00    628.532     0.000     0.153     3.013
   07/07/2021 01:02:00    640.481     0.000     0.155     3.015
   07/07/2021 01:04:00    635.471     0.000     0.154     3.014
   07/07/2021 01:06:00    619.287     0.000     0.152     3.012
   07/07/2021 01:08:00    592.817     0.000     0.147     3.007
   07/07/2021 01:10:00    562.139     0.000     0.141     3.001
   07/07/2021 01:12:00    524.986     0.000     0.134     2.994
   07/07/2021 01:14:00    494.455     0.000     0.128     2.988
   07/07/2021 01:16:00    460.185     0.000     0.121     2.981
   07/07/2021 01:18:00    429.231     0.000     0.115     2.975
   07/07/2021 01:20:00    399.099     0.000     0.108     2.968
   07/07/2021 01:22:00    370.894     0.000     0.102     2.962
   07/07/2021 01:24:00    344.683     0.000     0.096     2.956
   07/07/2021 01:26:00    320.390     0.000     0.090     2.950
   07/07/2021 01:28:00    298.129     0.000     0.085     2.945
   07/07/2021 01:30:00    277.886     0.000     0.080     2.940
   07/07/2021 01:32:00    259.097     0.000     0.075     2.935
   07/07/2021 01:34:00    241.926     0.000     0.071     2.931
   07/07/2021 01:36:00    227.470     0.000     0.067     2.927
   07/07/2021 01:38:00    212.436     0.000     0.063     2.923
   07/07/2021 01:40:00    196.884     0.000     0.058     2.918
   07/07/2021 01:42:00    183.963     0.000     0.054     2.914
   07/07/2021 01:44:00    173.258     0.000     0.051     2.911
   07/07/2021 01:46:00    163.989     0.000     0.048     2.908
   07/07/2021 01:48:00    155.787     0.000     0.045     2.905
   07/07/2021 01:50:00    148.512     0.000     0.043     2.903
   07/07/2021 01:52:00    141.998     0.000     0.041     2.901
   07/07/2021 01:54:00    136.118     0.000     0.039     2.899
   07/07/2021 01:56:00    130.778     0.000     0.037     2.897
   07/07/2021 01:58:00    125.920     0.000     0.035     2.895
   07/07/2021 02:00:00    121.495     0.000     0.033     2.893
   07/07/2021 02:02:00    117.455     0.000     0.031     2.891
   07/07/2021 02:04:00    113.740     0.000     0.030     2.890
   07/07/2021 02:06:00    110.343     0.000     0.029     2.889
   07/07/2021 02:08:00    107.237     0.000     0.027     2.887
   07/07/2021 02:10:00    104.383     0.000     0.026     2.886
   07/07/2021 02:12:00    101.717     0.000     0.025     2.885
   07/07/2021 02:14:00     99.233     0.000     0.024     2.884
   07/07/2021 02:16:00     97.044     0.000     0.023     2.883
   07/07/2021 02:18:00     95.064     0.000     0.022     2.882
   07/07/2021 02:20:00     93.244     0.000     0.021     2.881
   07/07/2021 02:22:00     91.570     0.000     0.020     2.880
   07/07/2021 02:24:00     90.034     0.000     0.019     2.879
   07/07/2021 02:26:00     88.627     0.000     0.018     2.878
   07/07/2021 02:28:00     87.341     0.000     0.018     2.878
   07/07/2021 02:30:00     86.163     0.000     0.017     2.877
  

  Analysis begun on:  Tue Apr  5 14:12:05 2022
  Analysis ended on:  Tue Apr  5 14:12:30 2022
  Total elapsed time: 00:00:25