
  EPA STORM WATER MANAGEMENT MODEL - VERSION 5.1 (Build 5.1.015)
  --------------------------------------------------------------

  
  *********************
  Rainfall File Summary
  *********************
  Station    First        Last         Recording   Periods    Periods    Periods
  ID         Date         Date         Frequency  w/Precip    Missing    Malfunc.
  -------------------------------------------------------------------------------
  STA01      07/24/2021   07/24/2021       1 min      1437          0          0

  
  *********************************************************
  NOTE: The summary statistics displayed in this report are
  based on results found at every computational time step,  
  not just on results from each reporting time step.
  *********************************************************
  
  ****************
  Analysis Options
  ****************
  Flow Units ............... LPS
  Process Models:
    Rainfall/Runoff ........ YES
    RDII ................... NO
    Snowmelt ............... NO
    Groundwater ............ NO
    Flow Routing ........... YES
    Ponding Allowed ........ YES
    Water Quality .......... NO
  Infiltration Method ...... GREEN_AMPT
  Flow Routing Method ...... DYNWAVE
  Surcharge Method ......... EXTRAN
  Starting Date ............ 07/24/2021 12:00:00
  Ending Date .............. 07/24/2021 15:00:00
  Antecedent Dry Days ...... 0.0
  Report Time Step ......... 00:02:00
  Wet Time Step ............ 00:01:00
  Dry Time Step ............ 00:01:00
  Routing Time Step ........ 1.00 sec
  Variable Time Step ....... YES
  Maximum Trials ........... 8
  Number of Threads ........ 1
  Head Tolerance ........... 0.001500 m
  
  
  *********************
  Control Actions Taken
  *********************

  
  **************************        Volume         Depth
  Runoff Quantity Continuity     hectare-m            mm
  **************************     ---------       -------
  Initial Snow Cover .......         0.000         0.000
  Total Precipitation ......         1.017        17.200
  Evaporation Loss .........         0.006         0.106
  Infiltration Loss ........         0.173         2.920
  Surface Runoff ...........         0.828        13.997
  Snow Removed .............         0.000         0.000
  Final Snow Cover .........         0.000         0.000
  Final Storage ............         0.014         0.240
  Continuity Error (%) .....        -0.362
  
  
  **************************        Volume        Volume
  Flow Routing Continuity        hectare-m      10^6 ltr
  **************************     ---------     ---------
  Dry Weather Inflow .......         0.000         0.000
  Wet Weather Inflow .......         0.828         8.276
  Groundwater Inflow .......         0.000         0.000
  RDII Inflow ..............         0.000         0.000
  External Inflow ..........         0.070         0.702
  External Outflow .........         0.818         8.178
  Flooding Loss ............         0.000         0.000
  Evaporation Loss .........         0.000         0.000
  Exfiltration Loss ........         0.000         0.000
  Initial Stored Volume ....         0.000         0.000
  Final Stored Volume ......         0.081         0.808
  Continuity Error (%) .....        -0.090
  
  
  *************************
  Highest Continuity Errors
  *************************
  Node SMH4029090 (14.13%)
  Node SMH4029074 (12.11%)
  Node SMH4028623 (11.09%)
  Node SWD40315731 (10.40%)
  Node SMH4029109 (9.79%)
  
  
  ***************************
  Time-Step Critical Elements
  ***************************
  Link SBP40091031 (32.31%)
  Link SWD40316102 (26.46%)
  Link SBP4013682 (1.97%)
  
  
  ********************************
  Highest Flow Instability Indexes
  ********************************
  Link SWD4031438 (17)
  Link SWD40315292 (16)
  Link SWD4031437 (15)
  Link SDP4001620 (12)
  Link SDP4001621 (12)
  
  
  *************************
  Routing Time Step Summary
  *************************
  Minimum Time Step           :     0.03 sec
  Average Time Step           :     0.70 sec
  Maximum Time Step           :     1.00 sec
  Percent in Steady State     :    -0.00
  Average Iterations per Step :     2.83
  Percent Not Converging      :     6.78
  Time Step Frequencies       :
      1.000 -  0.871 sec      :    39.23 %
      0.871 -  0.758 sec      :     0.10 %
      0.758 -  0.660 sec      :     0.12 %
      0.660 -  0.574 sec      :     0.13 %
      0.574 -  0.500 sec      :    60.42 %
  
  
  ***************************
  Subcatchment Runoff Summary
  ***************************
  
  ------------------------------------------------------------------------------------------------------------------------------
                            Total      Total      Total      Total     Imperv       Perv      Total       Total     Peak  Runoff
                           Precip      Runon       Evap      Infil     Runoff     Runoff     Runoff      Runoff   Runoff   Coeff
  Subcatchment                 mm         mm         mm         mm         mm         mm         mm    10^6 ltr      LPS
  ------------------------------------------------------------------------------------------------------------------------------
  s1                        17.20      10.24       0.11       1.97      24.59       0.77      25.36        0.00     0.93   0.924
  s2                        17.20       0.00       0.11       1.72      15.34       0.00      15.34        0.00     0.09   0.892
  s3                        17.20       0.00       0.11       1.72      15.28       0.00      15.28        0.00     0.19   0.889
  s4                        17.20       0.00       0.11       1.72      15.32       0.00      15.32        0.00     0.09   0.891
  s5                        17.20       0.00       0.11       1.72      15.05       0.00      15.05        0.00     0.31   0.875
  s6                        17.20       0.00       0.12       0.00      16.86       0.00      16.86        0.00     0.18   0.980
  s7                        17.20       0.00       0.12       0.00      16.89       0.00      16.89        0.00     0.09   0.982
  s8                        17.20       0.00       0.12       0.00      16.89       0.00      16.89        0.00     0.09   0.982
  s9                        17.20      39.94       0.12       0.00      56.89       0.00      56.89        0.01     9.14   0.995
  s10                       17.20       0.00       0.11       1.72      15.35       0.00      15.35        0.00     0.09   0.892
  s11                       17.20       0.00       0.11       1.72      15.22       0.00      15.22        0.00     0.28   0.885
  s12                       17.20       0.00       0.11       1.72      15.21       0.00      15.21        0.00     0.27   0.885
  s13                       17.20       0.00       0.11       1.72      15.24       0.00      15.24        0.00     0.19   0.886
  s14                       17.20       0.00       0.11       1.72      15.16       0.00      15.16        0.00     0.45   0.881
  s15                       17.20       0.00       0.11       1.72      15.16       0.00      15.16        0.01     5.76   0.881
  s16                       17.20       0.00       0.12       0.00      16.78       0.00      16.78        0.00     0.57   0.976
  s17                       17.20       0.00       0.12       0.00      16.64       0.00      16.64        0.00     1.62   0.968
  s18                       17.20       0.00       0.11       1.72      15.11       0.00      15.11        0.00     0.08   0.879
  s19                       17.20       0.00       0.11       1.72      15.11       0.00      15.11        0.00     0.08   0.879
  s20                       17.20       0.00       0.11       1.72      15.11       0.00      15.11        0.00     0.08   0.879
  s21                       17.20      20.66       0.12       0.00      37.58       0.00      37.58        0.02    12.32   0.992
  s22                       17.20       0.00       0.11       1.72      15.35       0.00      15.35        0.00     0.09   0.893
  s23                       17.20       0.00       0.11       1.72      15.28       0.00      15.28        0.00     0.19   0.889
  s24                       17.20       0.00       0.11       1.72      15.03       0.00      15.03        0.00     0.45   0.874
  s25                       17.20       0.00       0.11       1.72      15.11       0.00      15.11        0.00     0.08   0.879
  s26                       17.20       0.00       0.11       1.72      15.34       0.00      15.34        0.00     0.09   0.892
  s27                       17.20       0.00       0.11       1.72      15.29       0.00      15.29        0.00     0.28   0.889
  s28                       17.20       0.00       0.11       1.72      15.35       0.00      15.35        0.00     0.09   0.892
  s29                       17.20       0.00       0.11       1.72      15.21       0.00      15.21        0.00     0.64   0.885
  s30                       17.20       0.00       0.11       1.72      15.36       0.00      15.36        0.00     0.09   0.893
  s31                       17.20       0.00       0.11       1.72      15.34       0.00      15.34        0.00     0.09   0.892
  s32                       17.20       0.00       0.11       1.72      15.33       0.00      15.33        0.00     0.09   0.891
  s33                       17.20       0.00       0.11       1.72      15.40       0.00      15.40        0.00     0.09   0.895
  s34                       17.20       0.00       0.11       1.72      15.27       0.00      15.27        0.00     0.28   0.888
  s35                       17.20       0.00       0.11       1.72      15.20       0.00      15.20        0.00     0.82   0.884
  s36                       17.20       0.00       0.11       1.72      15.19       0.00      15.19        0.00     1.37   0.883
  s37                       17.20      30.64       0.11       2.12      42.79       2.67      45.46        0.00     2.48   0.950
  s38                       17.20       0.00       0.11       1.72      15.29       0.00      15.29        0.00     0.28   0.889
  s39                       17.20       0.00       0.11       1.72      15.11       0.00      15.11        0.00     0.08   0.879
  s40                       17.20       7.69       0.12       0.00      24.69       0.00      24.69        0.00     0.86   0.992
  s41                       17.20      35.81       0.12       0.00      52.90       0.00      52.90        0.00     0.89   0.998
  s42                       17.20       0.00       0.11       1.72      15.38       0.00      15.38        0.00     0.09   0.894
  s43                       17.20       0.00       0.11       1.72      15.28       0.00      15.28        0.00     0.19   0.888
  s44                       17.20       0.00       0.11       1.72      15.35       0.00      15.35        0.00     0.09   0.893
  s45                       17.20       0.00       0.11       1.72      15.24       0.00      15.24        0.00     0.28   0.886
  s46                       17.20       0.00       0.11       1.72      15.38       0.00      15.38        0.00     0.09   0.894
  s47                       17.20       0.00       0.11       1.72      15.31       0.00      15.31        0.00     0.19   0.890
  s48                       17.20      84.17       0.12       0.00     101.01       0.00     101.01        0.02    10.66   0.996
  s49                       17.20       0.00       0.11       1.72      15.32       0.00      15.32        0.00     0.09   0.891
  s50                       17.20      31.27       0.12       2.45      43.08       2.39      45.47        0.01     7.58   0.938
  s51                       17.20       9.33       0.11       1.99      23.59       0.66      24.25        0.00     1.01   0.914
  s52                       17.20       0.00       0.11       1.72      15.23       0.00      15.23        0.00     0.18   0.886
  s53                       17.20       0.00       0.11       1.72      15.32       0.00      15.32        0.00     0.09   0.891
  s54                       17.20       0.00       0.11       1.72      15.20       0.00      15.20        0.00     0.18   0.884
  s55                       17.20       0.00       0.11       1.72      15.30       0.00      15.30        0.00     0.09   0.890
  s56                       17.20       0.00       0.11       1.72      15.11       0.00      15.11        0.00     0.08   0.879
  s57                       17.20       0.00       0.12       0.00      17.15       0.00      17.15        0.00     0.10   0.997
  s58                       17.20       0.00       0.11       1.72      15.42       0.00      15.43        0.00     0.19   0.897
  s59                       17.20       0.00       0.12       0.00      17.12       0.00      17.12        0.00     0.10   0.995
  s60                       17.20      37.97       0.12       2.52      49.27       2.99      52.26        0.01     4.42   0.947
  s61                       17.20      11.27       0.11       2.20      25.30       0.64      25.94        0.00     0.51   0.911
  s62                       17.20       0.00       0.11       1.72      15.19       0.00      15.19        0.00     0.33   0.883
  s63                       17.20       0.00       0.11       1.72      15.22       0.00      15.22        0.00     0.17   0.885
  s64                       17.20       0.00       0.11       1.72      15.08       0.00      15.08        0.00     0.16   0.877
  s65                       17.20      78.44       0.12       2.49      85.65       7.07      92.71        0.00     2.39   0.969
  s66                       17.20       0.00       0.11       1.72      15.08       0.00      15.08        0.00     0.16   0.877
  s67                       17.20       0.00       0.11       1.72      15.00       0.00      15.00        0.00     0.65   0.872
  s68                       17.20       0.00       0.11       1.72      15.07       0.00      15.07        0.00     0.23   0.876
  s69                       17.20     374.93       0.12       2.67     353.13      36.58     389.71        0.00     2.19   0.994
  s70                       17.20       8.49       0.11       1.95      22.91       0.63      23.54        0.00     0.29   0.916
  s71                       17.20       0.00       0.11       1.72      15.11       0.00      15.11        0.00     0.08   0.879
  s72                       17.20      57.59       0.11       2.18      67.11       5.32      72.42        0.00     2.06   0.968
  s73                       17.20       0.00       0.11       1.72      15.11       0.00      15.11        0.00     0.08   0.879
  s74                       17.20       0.00       0.12       0.00      16.85       0.00      16.85        0.00     0.10   0.980
  s75                       17.20       0.00       0.12       0.00      16.88       0.00      16.88        0.00     0.10   0.981
  s76                       17.20       1.34       0.12       0.00      18.10       0.00      18.10        0.00     1.61   0.976
  s77                       17.20       4.26       0.03      16.96       2.16       2.36       4.52        0.00     0.21   0.210
  s78                       17.20       0.00       0.02      15.21       1.73       0.28       2.01        0.00     0.02   0.117
  s79                       17.20       0.00       0.12       0.00      16.89       0.00      16.89        0.00     0.09   0.982
  s80                       17.20       2.11       0.12       0.00      19.09       0.00      19.09        0.00     2.46   0.988
  s81                       17.20       0.00       0.11       1.72      15.48       0.00      15.48        0.00     0.09   0.900
  s82                       17.20       0.00       0.11       1.72      15.43       0.00      15.43        0.00     0.19   0.897
  s83                       17.20      23.28       0.12       0.00      40.24       0.00      40.24        0.01     4.99   0.994
  s84                       17.20       0.00       0.11       1.72      15.32       0.00      15.32        0.00     0.09   0.891
  s85                       17.20       0.00       0.11       1.72      15.36       0.00      15.36        0.00     0.09   0.893
  s86                       17.20       0.00       0.11       1.72      15.39       0.00      15.40        0.00     0.19   0.895
  s87                       17.20       0.00       0.11       1.72      15.22       0.00      15.22        0.00     0.17   0.885
  s88                       17.20       0.00       0.11       1.72      15.20       0.00      15.20        0.00     0.25   0.884
  s89                       17.20       0.00       0.11       1.72      15.40       0.00      15.40        0.00     0.09   0.895
  s90                       17.20       0.00       0.11       1.72      15.30       0.00      15.30        0.00     1.91   0.889
  s91                       17.20       0.00       0.11       1.71      15.47       0.00      15.47        0.00     0.09   0.900
  s92                       17.20       0.00       0.11       1.72      15.39       0.00      15.40        0.00     0.19   0.895
  s93                       17.20       0.00       0.11       1.72      15.36       0.00      15.36        0.00     0.28   0.893
  s94                       17.20       0.00       0.12       0.00      17.04       0.00      17.04        0.00     0.31   0.990
  s95                       17.20       0.00       0.11       1.72      15.04       0.00      15.04        0.00     1.21   0.874
  s96                       17.20       0.00       0.11       1.72      15.08       0.00      15.08        0.00     0.16   0.877
  s97                       17.20       3.86       0.12       0.00      20.87       0.00      20.87        0.00     0.49   0.991
  s98                       17.20       0.00       0.11       1.72      15.32       0.00      15.32        0.00     0.09   0.891
  s99                       17.20      36.38       0.12       0.00      53.45       0.00      53.45        0.00     3.63   0.998
  s100                      17.20       0.00       0.12       0.00      16.75       0.00      16.75        0.00     1.43   0.974
  s101                      17.20       0.00       0.12       0.00      16.79       0.00      16.79        0.00     0.52   0.976
  s102                      17.20       0.00       0.12       0.00      16.81       0.00      16.81        0.00     0.62   0.977
  s103                      17.20       0.00       0.12       0.00      16.99       0.00      16.99        0.00     0.10   0.988
  s104                      17.20      27.47       0.12       0.00      44.50       0.00      44.50        0.01     7.58   0.996
  s105                      17.20       0.00       0.12       0.00      16.86       0.00      16.86        0.00     0.10   0.980
  s106                      17.20       0.00       0.12       0.00      16.82       0.00      16.82        0.00     0.52   0.978
  s107                      17.20       0.00       0.12       0.00      16.89       0.00      16.89        0.00     0.21   0.982
  s108                      17.20       0.00       0.12       0.00      16.79       0.00      16.79        0.00     0.73   0.976
  s109                      17.20       0.00       0.12       0.00      16.79       0.00      16.79        0.00     0.93   0.976
  s110                      17.20       0.00       0.12       0.00      16.78       0.00      16.78        0.00     1.44   0.976
  s111                      17.20       0.00       0.12       0.00      16.82       0.00      16.82        0.00     0.31   0.978
  s112                      17.20       0.00       0.12       0.00      16.95       0.00      16.95        0.00     0.10   0.985
  s113                      17.20       0.00       0.12       0.00      16.80       0.00      16.80        0.00     0.52   0.977
  s114                      17.20       0.00       0.12       0.00      16.89       0.00      16.89        0.00     0.10   0.982
  s115                      17.20       0.00       0.12       0.00      16.92       0.00      16.92        0.00     0.10   0.984
  s116                      17.20       0.00       0.11       1.72      15.03       0.00      15.03        0.00     0.45   0.874
  s117                      17.20       0.00       0.12       0.00      16.89       0.00      16.89        0.00     0.09   0.982
  s118                      17.20       0.00       0.12       0.00      17.02       0.00      17.02        0.00     1.74   0.990
  s119                      17.20       0.00       0.12       0.00      16.92       0.00      16.92        0.00     1.15   0.984
  s120                      17.20      30.85       0.12       0.00      47.82       0.00      47.82        0.01     7.94   0.995
  s121                      17.20      20.28       0.12       0.00      37.06       0.00      37.06        0.00     1.02   0.989
  s122                      17.20       0.00       0.12       0.00      16.73       0.00      16.73        0.00     4.25   0.973
  s123                      17.20       0.00       0.12       0.00      16.90       0.00      16.90        0.00     0.21   0.983
  s124                      17.20      83.60       0.12       0.00     100.75       0.00     100.75        0.00     0.59   1.000
  s125                      17.20       0.00       0.12       0.00      16.89       0.00      16.89        0.00     0.10   0.982
  s126                      17.20       0.00       0.12       0.00      16.87       0.00      16.87        0.00     0.10   0.981
  s127                      17.20       0.00       0.12       0.00      16.83       0.00      16.83        0.00     0.52   0.978
  s128                      17.20       0.00       0.12       0.00      16.99       0.00      16.99        0.00     1.42   0.988
  s129                      17.20       0.00       0.12       0.00      16.73       0.00      16.73        0.00     0.71   0.973
  s130                      17.20       0.00       0.12       0.00      17.10       0.00      17.10        0.00     0.10   0.994
  s131                      17.20       0.00       0.12       0.00      17.15       0.00      17.15        0.00     0.10   0.997
  s132                      17.20       0.00       0.12       0.00      17.16       0.00      17.16        0.00     0.10   0.998
  s133                      17.20       0.00       0.12       0.00      17.03       0.00      17.03        0.00     1.13   0.990
  s134                      17.20       0.00       0.12       0.00      17.12       0.00      17.12        0.00     0.83   0.995
  s135                      17.20       0.00       0.12       0.00      16.90       0.00      16.90        0.00     0.10   0.983
  s136                      17.20       0.00       0.12       0.00      16.90       0.00      16.90        0.00     0.10   0.982
  s137                      17.20       0.00       0.12       0.00      16.80       0.00      16.80        0.00     0.52   0.977
  s138                      17.20       0.00       0.12       0.00      17.04       0.00      17.04        0.00     1.85   0.990
  s139                      17.20       0.26       0.12       0.00      17.34       0.00      17.34        0.00     1.68   0.993
  s140                      17.20       0.00       0.02      15.19       1.73       0.30       2.04        0.00     0.02   0.118
  s141                      17.20       0.00       0.02      15.17       1.73       0.33       2.06        0.00     0.02   0.120
  s142                      17.20       1.44       0.12       0.00      18.33       0.00      18.33        0.01     4.71   0.984
  s143                      17.20       0.00       0.12       0.00      16.85       0.00      16.85        0.00     0.10   0.980
  s144                      17.20       0.00       0.12       0.00      16.83       0.00      16.83        0.00     0.10   0.978
  s145                      17.20       0.00       0.12       0.00      16.74       0.00      16.74        0.00     0.20   0.973
  s146                      17.20      16.77       0.12       0.00      33.78       0.00      33.78        0.00     2.12   0.994
  s147                      17.20       0.00       0.11       1.71      15.45       0.00      15.46        0.00     0.09   0.899
  s148                      17.20       0.00       0.11       1.72      15.41       0.00      15.42        0.00     0.28   0.896
  s149                      17.20       0.00       0.11       1.72      15.36       0.00      15.36        0.00     0.37   0.893
  s150                      17.20       0.00       0.11       1.72      15.38       0.00      15.38        0.00     0.19   0.894
  s151                      17.20       0.00       0.11       1.72      15.44       0.00      15.44        0.00     0.09   0.898
  s152                      17.20       0.00       0.11       1.72      15.34       0.00      15.34        0.00     0.19   0.892
  s153                      17.20       1.56       0.12       0.00      18.56       0.00      18.56        0.00     1.10   0.990
  s154                      17.20       0.00       0.11       1.71      15.46       0.00      15.47        0.00     0.09   0.899
  s155                      17.20      18.71       0.12       0.00      35.64       0.00      35.64        0.01     8.15   0.993
  s156                      17.20       0.00       0.02      15.36       1.73       0.11       1.84        0.00     0.05   0.107
  s157                      17.20       0.00       0.02      15.35       1.73       0.11       1.85        0.00     0.06   0.107
  s158                      17.20       0.00       0.02      15.22       1.73       0.26       2.00        0.00     0.02   0.116
  s159                      17.20       3.15       0.03      17.61       2.04       0.67       2.71        0.00     0.92   0.133
  s160                      17.20       2.40       0.03      17.34       1.96       0.26       2.22        0.00     3.41   0.113
  s161                      17.20       0.00       0.02      15.38       1.73       0.09       1.82        0.00     0.12   0.106
  s162                      17.20       0.00       0.02      15.34       1.73       0.12       1.86        0.00     0.02   0.108
  s163                      17.20       0.00       0.02      15.34       1.73       0.12       1.86        0.00     0.02   0.108
  s164                      17.20       0.00       0.02      15.32       1.73       0.15       1.88        0.00     0.01   0.109
  s165                      17.20       0.00       0.02      15.27       1.73       0.21       1.94        0.00     0.01   0.113
  s166                      17.20       0.00       0.02      15.47       1.67       0.01       1.68        0.00     0.02   0.097
  s167                      17.20       1.48       0.03      16.69       1.81       0.11       1.92        0.00     0.95   0.103
  s168                      17.20       0.00       0.02      15.47       1.66       0.01       1.67        0.00     0.05   0.097
  s169                      17.20       0.89       0.03      16.24       1.75       0.03       1.78        0.00     0.02   0.098
  s170                      17.20      60.14       0.09      24.70       7.66      44.86      52.53        0.00     1.08   0.679
  s171                      17.20       0.00       0.02      15.47       1.67       0.01       1.68        0.00     0.02   0.097
  s172                      17.20       0.00       0.02      15.47       1.67       0.01       1.68        0.00     0.03   0.097
  s173                      17.20       0.00       0.02      15.47       1.67       0.01       1.68        0.00     0.01   0.098
  s174                      17.20       0.00       0.02      15.47       1.67       0.01       1.68        0.00     0.01   0.098
  s175                      17.20       0.00       0.02      15.47       1.66       0.00       1.66        0.00     0.25   0.097
  s176                      17.20       0.00       0.02      15.47       1.66       0.00       1.66        0.00     0.10   0.097
  s177                      17.20       0.00       0.02      15.47       1.66       0.00       1.66        0.00     0.10   0.097
  s178                      17.20       0.00       0.02      15.47       1.66       0.00       1.66        0.00     0.10   0.097
  s179                      17.20       0.00       0.02      15.47       1.66       0.00       1.66        0.00     0.10   0.097
  s180                      17.20       0.00       0.02      15.47       1.66       0.00       1.66        0.00     0.09   0.097
  s181                      17.20       0.00       0.02      15.47       1.66       0.00       1.66        0.00     0.09   0.097
  s182                      17.20       1.25       0.03      16.54       1.78       0.06       1.84        0.00     0.68   0.100
  s183                      17.20       0.00       0.02      15.47       1.68       0.02       1.69        0.00     0.01   0.098
  s184                      17.20       0.00       0.02      15.47       1.68       0.02       1.69        0.00     0.01   0.098
  s185                      17.20      40.64       0.05      19.77       5.72      32.35      38.07        0.00     1.31   0.658
  s186                      17.20       0.00       0.02      15.47       1.66       0.01       1.67        0.00     0.05   0.097
  s187                      17.20       0.00       0.02      15.43       1.72       0.03       1.76        0.00     0.01   0.102
  s188                      17.20       0.00       0.02      15.46       1.70       0.00       1.71        0.00     1.30   0.099
  s189                      17.20       0.00       0.02      15.47       1.68       0.02       1.69        0.00     0.01   0.098
  s190                      17.20       1.28       0.03      16.28       1.79       0.36       2.16        0.00     0.05   0.117
  s191                      17.20       0.00       0.02      15.43       1.72       0.03       1.76        0.00     0.01   0.102
  s192                      17.20       0.00       0.02      15.47       1.66       0.01       1.67        0.00     0.05   0.097
  s193                      17.20       4.64       0.03      17.50       2.12       2.17       4.29        0.00     0.14   0.197
  s194                      17.20       0.00       0.02      15.47       1.67       0.01       1.68        0.00     0.01   0.098
  s195                      17.20       0.00       0.02      15.45       1.71       0.01       1.72        0.00     0.26   0.100
  s196                      17.20       0.00       0.02      15.45       1.71       0.01       1.72        0.00     0.21   0.100
  s197                      17.20       0.00       0.02      15.44       1.72       0.02       1.74        0.00     0.04   0.101
  s198                      17.20       0.00       0.02      15.32       1.73       0.15       1.88        0.00     0.01   0.109
  s199                      17.20       0.00       0.02      15.28       1.73       0.19       1.92        0.00     0.01   0.112
  s200                      17.20       0.00       0.02      15.27       1.73       0.21       1.94        0.00     0.01   0.113
  s201                      17.20       0.00       0.02      15.45       1.71       0.01       1.72        0.00     1.19   0.100
  s202                      17.20       0.00       0.02      15.44       1.72       0.02       1.74        0.00     0.04   0.101
  s203                      17.20       0.00       0.02      15.44       1.72       0.02       1.74        0.00     0.04   0.101
  s204                      17.20       0.00       0.02      15.45       1.71       0.01       1.72        0.00     0.11   0.100
  s205                      17.20       0.11       0.02      15.55       1.72       0.01       1.73        0.00     0.15   0.100
  s206                      17.20       0.00       0.02      15.45       1.71       0.01       1.73        0.00     0.09   0.100
  s207                      17.20       0.00       0.02      15.44       1.72       0.03       1.75        0.00     0.02   0.102
  s208                      17.20       0.83       0.03      16.14       1.80       0.06       1.86        0.00     0.06   0.103
  s209                      17.20       9.87       0.05      19.11       2.72       5.21       7.93        0.00     0.06   0.293
  s210                      17.20       0.00       0.02      15.44       1.72       0.03       1.75        0.00     0.02   0.102
  s211                      17.20       0.00       0.02      15.45       1.72       0.02       1.73        0.00     0.05   0.101
  s212                      17.20       0.00       0.02      15.44       1.72       0.03       1.75        0.00     0.02   0.102
  s213                      17.20       0.00       0.02      15.43       1.72       0.03       1.76        0.00     0.01   0.102
  s214                      17.20       0.00       0.02      15.44       1.72       0.02       1.74        0.00     0.03   0.101
  s215                      17.20       0.00       0.02      15.47       1.66       0.00       1.66        0.00     0.06   0.096
  s216                      17.20       0.00       0.02      15.43       1.72       0.03       1.76        0.00     0.01   0.102
  s217                      17.20       0.00       0.02      15.47       1.66       0.00       1.66        0.00     0.03   0.096
  s218                      17.20       3.88       0.04      18.15       2.11       0.79       2.90        0.00     0.05   0.138
  s219                      17.20       0.00       0.02      15.47       1.66       0.00       1.66        0.00     0.02   0.097
  s220                      17.20       0.00       0.02      15.47       1.66       0.00       1.66        0.00     0.02   0.097
  s221                      17.20       0.00       0.02      15.47       1.66       0.00       1.66        0.00     0.03   0.096
  s222                      17.20       0.00       0.02      15.47       1.66       0.00       1.66        0.00     0.01   0.097
  s223                      17.20       0.31       0.12       0.00      17.32       0.00      17.32        0.00     2.80   0.989
  s224                      17.20       0.00       0.02      15.47       1.67       0.01       1.67        0.00     0.02   0.097
  s225                      17.20       0.00       0.02      15.47       1.68       0.02       1.69        0.00     0.01   0.098
  s226                      17.20       0.00       0.02      15.47       1.66       0.01       1.67        0.00     0.01   0.097
  s227                      17.20       0.00       0.02      15.47       1.67       0.01       1.68        0.00     0.01   0.098
  s228                      17.20      25.61       0.11       2.20      38.18       2.07      40.26        0.00     1.17   0.940
  s229                      17.20       0.00       0.12       0.00      17.12       0.00      17.12        0.00     0.10   0.995
  s230                      17.20    1226.41       0.12       0.00    1243.53       0.00    1243.53        0.04    29.80   1.000
  s231                      17.20       0.00       0.12       0.00      16.96       0.00      16.96        0.00     2.19   0.986
  s232                      17.20      46.76       0.11       2.29      57.32       4.10      61.42        0.04    29.54   0.960
  s233                      17.20     135.54       0.12       0.00     152.43       0.00     152.43        0.00     0.77   0.998
  s234                      17.20       0.00       0.11       1.72      15.16       0.00      15.16        0.00     0.62   0.881
  s235                      17.20       0.00       0.11       1.72      15.24       0.00      15.24        0.00     0.09   0.886
  s236                      17.20       0.00       0.12       0.00      17.15       0.00      17.15        0.00     0.10   0.997
  s237                      17.20     371.15       0.12       0.00     388.22       0.00     388.22        0.03    23.77   1.000
  s238                      17.20       0.00       0.11       1.72      15.22       0.00      15.22        0.00     0.17   0.885
  s239                      17.20       0.00       0.11       1.72      15.30       0.00      15.30        0.00     0.27   0.890
  s240                      17.20      45.22       0.11       2.24      55.97       4.00      59.97        0.03    22.55   0.961
  s241                      17.20       0.00       0.12       0.00      17.14       0.00      17.14        0.00     0.10   0.996
  s242                      17.20       0.00       0.12       0.00      16.93       0.00      16.93        0.00     1.06   0.984
  s243                      17.20       0.00       0.12       0.00      17.12       0.00      17.12        0.00     0.10   0.995
  s244                      17.20       0.00       0.12       0.00      17.12       0.00      17.12        0.00     0.10   0.995
  s245                      17.20       0.00       0.12       0.00      17.03       0.00      17.03        0.00     0.21   0.990
  s246                      17.20       0.00       0.12       0.00      16.93       0.00      16.93        0.00     0.39   0.984
  s247                      17.20       0.00       0.12       0.00      17.03       0.00      17.03        0.00     0.21   0.990
  s248                      17.20       1.34       0.12       0.00      18.20       0.00      18.20        0.01     4.40   0.982
  s249                      17.20       0.00       0.12       0.00      17.12       0.00      17.12        0.00     0.10   0.995
  s250                      17.20       0.00       0.12       0.00      17.10       0.00      17.10        0.00     0.10   0.994
  s251                      17.20       0.00       0.12       0.00      16.99       0.00      16.99        0.00     0.20   0.988
  s252                      17.20       0.00       0.12       0.00      17.12       0.00      17.12        0.00     0.10   0.995
  s253                      17.20       0.00       0.12       0.00      16.89       0.00      16.89        0.00     0.09   0.982
  s254                      17.20       0.00       0.12       0.00      17.02       0.00      17.02        0.00     0.20   0.990
  s255                      17.20      85.65       0.12       0.00     102.75       0.00     102.75        0.01    11.09   0.999
  s256                      17.20       0.00       0.11       1.71      15.48       0.00      15.48        0.00     0.09   0.900
  s257                      17.20       0.00       0.11       1.71      15.49       0.01      15.49        0.00     0.09   0.901
  s258                      17.20       0.00       0.11       1.72      15.40       0.00      15.40        0.00     0.37   0.895
  s259                      17.20       0.00       0.11       1.71      15.49       0.00      15.49        0.00     0.09   0.901
  s260                      17.20       0.00       0.11       1.72      15.24       0.00      15.24        0.00     0.09   0.886
  s261                      17.20       0.00       0.11       1.71      15.49       0.01      15.50        0.00     0.09   0.901
  s262                      17.20       0.00       0.11       1.71      15.48       0.00      15.48        0.00     0.28   0.900
  s263                      17.20       0.00       0.11       1.72      15.36       0.00      15.36        0.00     2.42   0.893
  s264                      17.20       0.00       0.11       1.72      15.43       0.00      15.43        0.00     0.28   0.897
  s265                      17.20       7.94       0.11       1.97      22.47       0.54      23.01        0.01     6.29   0.915
  s266                      17.20       0.00       0.12       0.00      17.12       0.00      17.12        0.00     0.10   0.995
  s267                      17.20      11.37       0.12       0.00      28.42       0.00      28.42        0.00     0.63   0.995
  s268                      17.20       0.00       0.12       0.00      17.13       0.00      17.13        0.00     0.31   0.996
  s269                      17.20       6.63       0.12       0.00      23.68       0.00      23.68        0.00     0.98   0.994
  s270                      17.20       0.00       0.12       0.00      17.17       0.00      17.17        0.00     0.10   0.998
  s271                      17.20       0.00       0.11       1.71      15.47       0.00      15.48        0.00     0.09   0.900
  s272                      17.20       0.00       0.11       1.72      15.20       0.00      15.20        0.00     0.25   0.884
  s273                      17.20       0.00       0.11       1.72      15.43       0.00      15.43        0.00     0.19   0.897
  s274                      17.20       0.00       0.12       0.00      16.77       0.00      16.77        0.00     0.64   0.975
  s275                      17.20       0.00       0.11       1.72      15.24       0.00      15.24        0.00     0.09   0.886
  s276                      17.20       9.19       0.12       0.00      26.07       0.00      26.07        0.02    16.00   0.988
  s277                      17.20       0.00       0.11       1.72      15.24       0.00      15.24        0.00     0.09   0.886
  s278                      17.20       0.00       0.11       1.72      15.20       0.00      15.20        0.00     0.25   0.884
  s279                      17.20       0.00       0.11       1.72      15.24       0.00      15.24        0.00     0.09   0.886
  s280                      17.20       0.00       0.11       1.72      15.22       0.00      15.22        0.00     0.77   0.885
  s281                      17.20       0.00       0.11       1.72      15.43       0.00      15.43        0.00     0.19   0.897
  s282                      17.20       0.00       0.11       1.72      15.46       0.00      15.47        0.00     0.09   0.899
  s283                      17.20       0.00       0.11       1.72      15.47       0.00      15.47        0.00     0.19   0.900
  s284                      17.20       0.00       0.11       1.72      15.24       0.00      15.24        0.00     0.09   0.886
  s285                      17.20       0.00       0.11       1.72      15.20       0.00      15.20        0.00     0.25   0.884
  s286                      17.20       0.00       0.11       1.72      15.20       0.00      15.20        0.00     0.25   0.884
  s287                      17.20       0.00       0.11       1.72      15.20       0.00      15.20        0.00     0.25   0.884
  s288                      17.20       0.00       0.11       1.72      15.24       0.00      15.24        0.00     0.09   0.886
  s289                      17.20       0.00       0.11       1.72      15.47       0.00      15.48        0.00     0.09   0.900
  s290                      17.20       0.00       0.11       1.72      15.43       0.00      15.43        0.00     0.19   0.897
  s291                      17.20       0.00       0.11       1.72      15.43       0.00      15.43        0.00     0.09   0.897
  s292                      17.20      31.34       0.11       2.12      43.52       2.75      46.27        0.00     2.08   0.953
  s293                      17.20       0.00       0.11       1.72      15.48       0.01      15.48        0.00     0.09   0.900
  s294                      17.20       0.00       0.11       1.72      15.20       0.00      15.20        0.00     0.99   0.884
  s295                      17.20       0.00       0.12       0.00      17.05       0.00      17.05        0.00     0.21   0.991
  s296                      17.20       0.00       0.12       0.00      17.05       0.00      17.05        0.00     0.21   0.991
  s297                      17.20       5.83       0.12       0.00      22.82       0.00      22.82        0.00     1.06   0.991
  s298                      17.20       0.00       0.11       1.72      15.42       0.00      15.42        0.00     0.09   0.897
  s299                      17.20       0.00       0.11       1.72      15.47       0.00      15.47        0.00     0.09   0.900
  s300                      17.20       0.00       0.11       1.72      15.40       0.00      15.40        0.00     0.09   0.895
  s301                      17.20       0.00       0.11       1.72      15.24       0.00      15.24        0.00     0.09   0.886
  s302                      17.20       1.89       0.11       1.88      16.85       0.02      16.87        0.00     0.76   0.884
  s303                      17.20       0.00       0.12       0.00      16.89       0.00      16.89        0.00     0.09   0.982
  s304                      17.20      77.34       0.11       2.26      84.96       7.19      92.15        0.01     6.78   0.975
  s305                      17.20       0.00       0.12       0.00      17.18       0.00      17.18        0.00     0.10   0.999
  s306                      17.20       0.00       0.12       0.00      17.12       0.00      17.12        0.00     0.10   0.995
  s307                      17.20       0.00       0.12       0.00      17.16       0.00      17.16        0.00     0.10   0.998
  s308                      17.20      15.66       0.12       0.00      32.76       0.00      32.76        0.00     0.57   0.997
  s309                      17.20      47.61       0.12       0.00      64.60       0.00      64.60        0.00     2.26   0.997
  s310                      17.20       8.69       0.12       0.00      25.66       0.00      25.66        0.00     2.86   0.991
  s311                      17.20       0.00       0.11       1.71      15.50       0.01      15.50        0.00     0.09   0.901
  s312                      17.20       0.00       0.11       1.72      15.38       0.00      15.39        0.00     0.09   0.895
  s313                      17.20       0.00       0.11       1.71      15.48       0.00      15.49        0.00     0.09   0.900
  s314                      17.20       0.00       0.11       1.71      15.49       0.01      15.49        0.00     0.09   0.901
  s315                      17.20       0.00       0.11       1.72      15.38       0.00      15.39        0.00     0.09   0.895
  s316                      17.20       0.00       0.01      16.33       0.86       0.00       0.86        0.00     0.01   0.050
  s317                      17.20       0.00       0.11       1.71      15.47       0.00      15.47        0.00     0.09   0.900
  s318                      17.20       0.00       0.11       1.72      15.38       0.00      15.39        0.00     0.09   0.895
  s319                      17.20      42.79       0.05      21.47       3.01      35.53      38.54        0.00     1.89   0.642
  s320                      17.20       0.00       0.11       1.72      15.31       0.00      15.32        0.00     0.09   0.890
  s321                      17.20       0.00       0.11       1.72      15.36       0.00      15.37        0.00     0.09   0.893
  s322                      17.20       0.00       0.11       1.71      15.47       0.00      15.47        0.00     0.09   0.900
  s323                      17.20       2.16       0.02      18.00       0.97       0.38       1.35        0.00     0.09   0.070
  s324                      17.20       0.00       0.01      16.33       0.86       0.01       0.87        0.00     0.01   0.051
  s325                      17.20      13.33       0.11       2.00      27.38       1.05      28.43        0.00     1.73   0.931
  s326                      17.20       2.22       0.03      18.15       0.97       0.28       1.26        0.00     0.27   0.065
  s327                      17.20       0.00       0.12       0.00      17.14       0.00      17.14        0.00     0.10   0.996
  s328                      17.20       0.00       0.12       0.00      17.08       0.00      17.08        0.00     0.31   0.993
  s329                      17.20       8.63       0.03      19.36       1.29       5.17       6.46        0.00     0.14   0.250
  s330                      17.20       0.00       0.11       1.72      15.41       0.00      15.42        0.00     0.09   0.896
  s331                      17.20       0.00       0.11       1.72      15.40       0.00      15.41        0.00     0.09   0.896
  s332                      17.20       0.00       0.11       1.72      15.42       0.00      15.43        0.00     0.09   0.897
  s333                      17.20       0.00       0.12       0.00      17.12       0.00      17.12        0.00     0.10   0.995
  s334                      17.20       0.00       0.01      16.33       0.86       0.00       0.87        0.00     0.02   0.050
  s335                      17.20       0.00       0.01      16.33       0.86       0.01       0.87        0.00     0.01   0.051
  s336                      17.20       2.88       0.03      18.40       1.01       0.66       1.66        0.00     0.10   0.083
  s337                      17.20       0.00       0.01      16.33       0.86       0.01       0.87        0.00     0.01   0.051
  s338                      17.20      15.19       0.04      20.37       1.62      10.38      12.00        0.00     0.90   0.371
  s339                      17.20       4.33       0.03      18.75       1.08       1.69       2.77        0.00     0.12   0.129
  s340                      17.20       0.00       0.12       0.00      17.12       0.00      17.12        0.00     0.10   0.995
  s341                      17.20       0.00       0.12       0.00      17.12       0.00      17.12        0.00     0.10   0.995
  s342                      17.20       0.00       0.12       0.00      17.13       0.00      17.13        0.00     0.10   0.996
  s343                      17.20       0.00       0.12       0.00      17.15       0.00      17.15        0.00     0.10   0.997
  s344                      17.20       0.00       0.12       0.00      17.04       0.00      17.04        0.00     0.31   0.991
  s345                      17.20       0.00       0.12       0.00      17.04       0.00      17.04        0.00     0.31   0.991
  s346                      17.20       0.00       0.12       0.00      17.17       0.00      17.17        0.00     0.10   0.998
  s347                      17.20       0.00       0.12       0.00      17.12       0.00      17.12        0.00     0.21   0.995
  s348                      17.20       0.00       0.12       0.00      17.07       0.00      17.07        0.00     0.10   0.993
  s349                      17.20       0.00       0.12       0.00      17.11       0.00      17.11        0.00     0.10   0.995
  s350                      17.20       0.00       0.12       0.00      16.90       0.00      16.90        0.00     2.82   0.983
  s351                      17.20      19.43       0.12       0.00      36.30       0.00      36.30        0.02    13.19   0.991
  s352                      17.20       8.84       0.05      19.13       2.54       4.28       6.82        0.00     4.47   0.262
  s353                      17.20       0.00       0.02      15.47       1.66       0.00       1.66        0.00     0.07   0.097
  s354                      17.20      15.37       0.04      18.84       3.19      10.48      13.67        0.00     1.52   0.420
  s355                      17.20       0.00       0.02      15.47       1.67       0.01       1.68        0.00     0.01   0.098
  s356                      17.20       0.00       0.11       1.72      15.37       0.00      15.37        0.00     0.84   0.894
  s357                      17.20       0.00       0.11       1.72      15.42       0.00      15.43        0.00     0.28   0.897
  s358                      17.20       0.00       0.11       1.72      15.47       0.00      15.47        0.00     0.09   0.900
  s359                      17.20       0.00       0.02      15.47       1.67       0.01       1.68        0.00     0.01   0.098
  s360                      17.20       0.00       0.11       1.72      15.42       0.00      15.42        0.00     0.19   0.896
  s361                      17.20       0.00       0.11       1.72      15.45       0.00      15.45        0.00     0.09   0.899
  s362                      17.20       0.00       0.11       1.72      15.39       0.00      15.39        0.00     0.47   0.895
  s363                      17.20       0.00       0.11       1.72      15.46       0.00      15.47        0.00     0.09   0.899
  s364                      17.20       0.00       0.11       1.72      15.31       0.00      15.31        0.00     3.03   0.890
  s365                      17.20       0.00       0.11       1.72      15.40       0.00      15.40        0.00     0.28   0.895
  s366                      17.20       0.00       0.11       1.72      15.45       0.00      15.45        0.00     0.09   0.899
  s367                      17.20       0.00       0.11       1.72      15.39       0.00      15.39        0.00     0.47   0.895
  s368                      17.20       0.00       0.11       1.72      15.30       0.00      15.30        0.00     2.46   0.889
  s369                      17.20       0.00       0.11       1.72      15.45       0.00      15.45        0.00     0.09   0.899
  s370                      17.20       0.00       0.11       1.72      15.45       0.00      15.45        0.00     0.09   0.899
  s371                      17.20       0.00       0.11       1.72      15.41       0.00      15.41        0.00     0.28   0.896
  s372                      17.20       0.00       0.11       1.72      15.45       0.00      15.45        0.00     0.09   0.899
  s373                      17.20       0.00       0.12       0.00      16.76       0.00      16.76        0.00     0.71   0.974
  s374                      17.20       0.00       0.12       0.00      17.01       0.00      17.01        0.00     0.61   0.989
  s375                      17.20       0.00       0.11       1.72      15.40       0.00      15.40        0.00     0.09   0.896
  s376                      17.20       0.00       0.11       1.72      15.40       0.00      15.40        0.00     0.09   0.896
  s377                      17.20       9.52       0.11       2.10      23.72       0.57      24.30        0.02    14.54   0.909
  s378                      17.20       0.00       0.12       0.00      16.95       0.00      16.95        0.00     1.18   0.985
  s379                      17.20       0.00       0.12       0.00      17.05       0.00      17.05        0.00     0.31   0.991
  s380                      17.20       0.00       0.12       0.00      17.01       0.00      17.01        0.00     0.41   0.989
  s381                      17.20       0.00       0.12       0.00      16.99       0.00      16.99        0.00     0.51   0.988
  s382                      17.20       3.38       0.12       0.00      20.34       0.00      20.34        0.00     1.04   0.988
  s383                      17.20       0.00       0.12       0.00      16.89       0.00      16.89        0.00     0.09   0.982
  s384                      17.20       3.84       0.12       0.00      20.84       0.00      20.84        0.00     0.48   0.991
  s385                      17.20       0.00       0.12       0.00      17.12       0.00      17.12        0.00     0.10   0.995
  s386                      17.20       0.00       0.11       1.72      15.22       0.00      15.22        0.00     0.17   0.885
  s387                      17.20       0.00       0.11       1.72      15.24       0.00      15.24        0.00     0.09   0.886
  s388                      17.20       0.00       0.12       0.00      17.05       0.00      17.05        0.00     0.21   0.991
  s389                      17.20       0.00       0.12       0.00      16.99       0.00      16.99        0.00     0.30   0.988
  s390                      17.20       0.00       0.12       0.00      16.92       0.00      16.92        0.00     1.44   0.984
  s391                      17.20       7.80       0.12       0.00      24.68       0.00      24.68        0.01     4.47   0.987
  s392                      17.20       0.00       0.11       1.72      15.18       0.00      15.18        0.00     0.09   0.882
  s393                      17.20       0.00       0.11       1.72      15.14       0.00      15.14        0.00     0.25   0.880
  s394                      17.20       0.00       0.11       1.72      15.11       0.00      15.11        0.00     0.40   0.879
  s395                      17.20       0.00       0.11       1.72      15.12       0.00      15.12        0.00     0.33   0.879
  s396                      17.20       0.00       0.11       1.72      15.15       0.00      15.15        0.00     0.17   0.881
  s397                      17.20       0.00       0.11       1.72      15.22       0.00      15.22        0.00     0.17   0.885
  s398                      17.20       0.00       0.11       1.72      15.18       0.00      15.18        0.00     0.09   0.882
  s399                      17.20      17.65       0.12       0.00      34.72       0.00      34.72        0.00     1.40   0.996
  s400                      17.20      81.82       0.11       2.19      89.06       7.84      96.89        0.00     0.55   0.979
  s401                      17.20       0.00       0.11       1.72      15.40       0.00      15.41        0.00     0.09   0.896
  s402                      17.20       0.00       0.11       1.72      15.42       0.00      15.43        0.00     0.09   0.897
  s403                      17.20      10.44       0.12       0.00      27.57       0.00      27.57        0.00     0.48   0.997
  s404                      17.20       0.00       0.11       1.71      15.49       0.01      15.50        0.00     0.09   0.901
  s405                      17.20       0.00       0.11       1.71      15.46       0.00      15.46        0.00     0.28   0.899
  s406                      17.20       0.00       0.11       1.72      15.45       0.00      15.45        0.00     0.37   0.898
  s407                      17.20       0.00       0.11       1.71      15.49       0.01      15.50        0.00     0.09   0.901
  s408                      17.20       0.00       0.11       1.71      15.49       0.01      15.49        0.00     0.09   0.901
  s409                      17.20       0.00       0.12       0.00      17.13       0.00      17.13        0.00     0.42   0.996
  s410                      17.20       0.00       0.11       1.72      15.45       0.00      15.45        0.00     0.47   0.898
  s411                      17.20       0.00       0.11       1.72      15.41       0.00      15.41        0.00     1.22   0.896
  s412                      17.20       0.00       0.11       1.72      15.49       0.00      15.49        0.00     0.09   0.901
  s413                      17.20       0.00       0.02      15.19       1.73       0.30       2.04        0.00     0.02   0.119
  s414                      17.20       0.00       0.02      15.20       1.73       0.29       2.03        0.00     0.02   0.118
  s415                      17.20     167.20       0.12       0.00     184.25       0.00     184.25        0.01     9.00   0.999
  s416                      17.20       0.00       0.11       1.72      15.49       0.01      15.50        0.00     0.09   0.901
  s417                      17.20      14.54       0.11       2.08      28.35       1.09      29.44        0.01     8.15   0.928
  s418                      17.20       0.00       0.11       1.72      15.49       0.01      15.50        0.00     0.09   0.901
  s419                      17.20       0.00       0.11       1.72      15.08       0.00      15.08        0.00     0.16   0.877
  s420                      17.20       0.00       0.11       1.72      15.05       0.00      15.05        0.00     0.31   0.875
  s421                      17.20       0.00       0.11       1.72      15.08       0.00      15.08        0.00     0.16   0.877
  s422                      17.20       0.00       0.11       1.72      15.11       0.00      15.11        0.00     0.08   0.879
  s423                      17.20       0.00       0.11       1.72      15.07       0.00      15.07        0.00     1.18   0.876
  s424                      17.20       6.21       0.11       1.93      20.82       0.41      21.23        0.00     0.66   0.907
  s425                      17.20      28.26       0.11       2.10      40.69       2.45      43.14        0.00     1.50   0.949
  s426                      17.20       0.00       0.11       1.72      15.44       0.00      15.44        0.00     0.09   0.898
  s427                      17.20       0.00       0.11       1.72      15.40       0.00      15.40        0.00     0.09   0.895
  s428                      17.20       0.00       0.11       1.72      15.47       0.00      15.47        0.00     0.09   0.900
  s429                      17.20       0.00       0.11       1.72      15.39       0.00      15.39        0.00     0.84   0.895
  s430                      17.20       0.00       0.11       1.72      15.48       0.00      15.49        0.00     0.09   0.900
  s431                      17.20       0.00       0.11       1.72      15.20       0.00      15.20        0.00     0.82   0.884
  s432                      17.20       0.00       0.11       1.72      15.23       0.00      15.23        0.00     1.48   0.886
  s433                      17.20       0.00       0.11       1.71      15.49       0.01      15.50        0.00     0.09   0.901
  s434                      17.20       3.10       0.11       1.87      18.22       0.16      18.38        0.00     0.55   0.905
  s435                      17.20       0.00       0.11       1.72      15.20       0.00      15.20        0.00     4.02   0.884
  s436                      17.20       0.00       0.11       1.72      15.41       0.00      15.41        0.00     0.09   0.896
  s437                      17.20       0.00       0.11       1.72      15.41       0.00      15.41        0.00     0.09   0.896
  s438                      17.20       0.00       0.11       1.72      15.42       0.00      15.42        0.00     0.09   0.897
  s439                      17.20       0.06       0.12       0.00      17.11       0.00      17.11        0.00     1.44   0.991
  s440                      17.20       0.00       0.01      16.33       0.86       0.02       0.88        0.00     0.01   0.051
  s441                      17.20       0.00       0.12       0.00      16.98       0.00      16.98        0.00     1.01   0.987
  s442                      17.20       0.00       0.12       0.00      16.92       0.00      16.92        0.00     2.31   0.984
  s443                      17.20       0.00       0.11       1.72      15.23       0.00      15.23        0.00     0.55   0.885
  s444                      17.20       0.00       0.12       0.00      17.05       0.00      17.05        0.00     0.21   0.991
  s445                      17.20       0.00       0.12       0.00      17.05       0.00      17.05        0.00     0.21   0.991
  s446                      17.20       0.00       0.12       0.00      17.12       0.00      17.12        0.00     0.10   0.995
  s447                      17.20       8.19       0.12       0.00      25.16       0.00      25.16        0.00     0.83   0.991
  s448                      17.20       0.00       0.11       1.72      15.30       0.00      15.30        0.00     0.09   0.890
  s449                      17.20       0.00       0.11       1.72      15.35       0.00      15.35        0.00     0.09   0.893
  s450                      17.20       0.00       0.11       1.72      15.32       0.00      15.32        0.00     0.09   0.891
  s451                      17.20      33.83       0.11       2.11      45.74       3.01      48.75        0.00     0.28   0.955
  s452                      17.20       0.00       0.12       0.00      17.05       0.00      17.05        0.00     0.21   0.991
  s453                      17.20      11.05       0.12       0.00      28.09       0.00      28.09        0.00     1.15   0.994
  s454                      17.20       0.00       0.11       1.72      15.38       0.00      15.39        0.00     0.09   0.895
  s455                      17.20       0.00       0.11       1.72      15.37       0.00      15.37        0.00     0.09   0.894
  s456                      17.20       0.00       0.11       1.72      15.36       0.00      15.36        0.00     0.09   0.893
  s457                      17.20       0.00       0.11       1.72      15.34       0.00      15.34        0.00     0.09   0.892
  s458                      17.20       0.00       0.11       1.72      15.34       0.00      15.34        0.00     0.09   0.892
  s459                      17.20    3182.22       0.12       0.00    3199.31       0.00    3199.31        0.10    71.11   1.000
  s460                      17.20       0.00       0.11       1.72      15.44       0.00      15.44        0.00     0.09   0.898
  s461                      17.20       0.00       0.11       1.72      15.24       0.00      15.24        0.00     0.09   0.886
  s462                      17.20       0.00       0.11       1.72      15.11       0.00      15.11        0.00     0.08   0.879
  s463                      17.20      68.49       0.12       2.54      76.77       6.01      82.78        0.00     1.57   0.966
  s464                      17.20     146.76       0.12       2.74     147.28      13.62     160.90        0.10    69.84   0.981
  s465                      17.20      28.87       0.12       0.00      45.66       0.00      45.66        0.00     1.35   0.991
  s466                      17.20       3.77       0.11       1.88      18.83       0.22      19.05        0.00     0.11   0.909
  s467                      17.20       2.86       0.11       1.88      17.91       0.12      18.04        0.00     0.63   0.899
  s468                      17.20       0.00       0.11       1.72      15.22       0.00      15.22        0.00     0.17   0.885
  s469                      17.20       0.00       0.11       1.72      15.24       0.00      15.24        0.00     0.09   0.886
  s470                      17.20       0.00       0.02      15.31       1.73       0.16       1.90        0.00     0.02   0.110
  s471                      17.20       0.00       0.02      15.30       1.73       0.17       1.90        0.00     0.04   0.111
  s472                      17.20       0.00       0.02      15.29       1.73       0.18       1.92        0.00     0.04   0.111
  s473                      17.20       0.00       0.02      15.29       1.73       0.18       1.92        0.00     0.04   0.111
  s474                      17.20       0.00       0.02      15.36       1.73       0.11       1.84        0.00     0.08   0.107
  s475                      17.20       0.00       0.02      15.35       1.73       0.11       1.85        0.00     0.06   0.107
  s476                      17.20       0.00       0.02      15.35       1.73       0.11       1.85        0.00     0.06   0.107
  s477                      17.20       0.00       0.02      15.34       1.73       0.13       1.86        0.00     0.05   0.108
  s478                      17.20       0.78       0.03      16.05       1.80       0.11       1.91        0.00     0.72   0.106
  s479                      17.20       0.00       0.02      15.34       1.73       0.12       1.86        0.00     0.02   0.108
  s480                      17.20       0.00       0.02      15.25       1.73       0.24       1.97        0.00     0.02   0.115
  s481                      17.20       0.00       0.02      15.32       1.73       0.15       1.88        0.00     0.03   0.109
  s482                      17.20       0.00       0.02      15.43       1.72       0.03       1.76        0.00     0.01   0.102
  s483                      17.20      13.20       0.07      21.57       3.04       5.71       8.75        0.03    23.72   0.288
  s484                      17.20       0.00       0.02      15.27       1.73       0.21       1.94        0.00     0.01   0.113
  s485                      17.20       0.00       0.02      15.31       1.73       0.16       1.90        0.00     0.02   0.110
  s486                      17.20       0.00       0.02      15.36       1.73       0.11       1.84        0.00     0.08   0.107
  s487                      17.20       0.00       0.02      15.37       1.73       0.10       1.83        0.00     0.10   0.106
  s488                      17.20       0.00       0.02      15.28       1.73       0.19       1.92        0.00     0.01   0.112
  s489                      17.20       0.00       0.02      15.32       1.73       0.15       1.88        0.00     0.03   0.109
  s490                      17.20       6.09       0.05      19.82       2.32       1.09       3.41        0.01    12.56   0.147
  s491                      17.20    1897.82       0.12      30.35     193.01    1690.12    1883.14        0.05    36.07   0.983
  s492                      17.20     208.80       0.12       2.60     203.30      19.98     223.27        0.05    36.67   0.988
  s493                      17.20       0.00       0.12       0.00      17.05       0.00      17.05        0.00     0.21   0.991
  s494                      17.20       0.00       0.12       0.00      17.15       0.00      17.15        0.00     0.10   0.997
  s495                      17.20       0.00       0.11       1.72      15.39       0.00      15.39        0.00     0.28   0.895
  s496                      17.20       0.00       0.02      15.45       1.72       0.02       1.73        0.00     1.43   0.101
  s497                      17.20    2298.49       0.10      26.26     233.41    2058.95    2292.36        0.04    35.02   0.990
  s498                      17.20     444.02       0.12       2.59     415.16      43.55     458.72        0.04    35.07   0.995
  s499                      17.20       0.00       0.12       0.00      17.12       0.00      17.12        0.00     0.10   0.995
  s500                      17.20       0.00       0.02      15.27       1.73       0.21       1.94        0.00     0.01   0.113
  s501                      17.20       0.00       0.02      15.36       1.73       0.10       1.84        0.00     0.03   0.107
  s502                      17.20       0.00       0.02      15.42       1.73       0.04       1.76        0.00     0.38   0.103
  s503                      17.20       0.00       0.02      15.24       1.73       0.25       1.98        0.00     0.02   0.115
  s504                      17.20       0.00       0.02      15.27       1.73       0.21       1.94        0.00     0.01   0.113
  s505                      17.20       5.93       0.05      19.74       2.31       1.02       3.33        0.04    34.03   0.144
  s506                      17.20       0.00       0.12       0.00      17.10       0.00      17.10        0.00     0.10   0.994
  s507                      17.20      20.56       0.12       0.00      37.45       0.00      37.45        0.02    16.48   0.992
  s508                      17.20       0.00       0.11       1.72      15.38       0.00      15.38        0.00     0.19   0.894
  s509                      17.20       0.00       0.11       1.72      15.36       0.00      15.36        0.00     2.60   0.893
  s510                      17.20       0.00       0.12       0.00      17.15       0.00      17.15        0.00     0.10   0.997
  s511                      17.20       0.00       0.12       0.00      17.05       0.00      17.05        0.00     0.21   0.991
  s512                      17.20       0.00       0.12       0.00      17.05       0.00      17.05        0.00     0.21   0.991
  s513                      17.20       4.60       0.12       0.00      21.54       0.00      21.54        0.00     2.90   0.988
  s514                      17.20       0.00       0.12       0.00      16.99       0.00      16.99        0.00     0.30   0.988
  s515                      17.20       0.00       0.12       0.00      17.01       0.00      17.01        0.00     0.31   0.989
  s516                      17.20       0.00       0.11       1.71      15.47       0.00      15.47        0.00     0.09   0.900
  s517                      17.20       0.00       0.12       0.00      17.12       0.00      17.12        0.00     0.10   0.995
  s518                      17.20       0.00       0.12       0.00      17.02       0.00      17.02        0.00     1.02   0.989
  s519                      17.20       0.00       0.12       0.00      16.99       0.00      16.99        0.00     1.01   0.988
  s520                      17.20       0.00       0.12       0.00      17.16       0.00      17.16        0.00     0.10   0.998
  s521                      17.20       0.00       0.11       1.72      15.40       0.00      15.40        0.00     1.40   0.895
  s522                      17.20      11.51       0.11       1.98      25.71       0.89      26.60        0.00     0.48   0.926
  s523                      17.20       0.00       0.11       1.72      15.34       0.00      15.34        0.00     0.09   0.892
  s524                      17.20       0.00       0.12       0.00      17.06       0.00      17.06        0.00     0.10   0.992
  s525                      17.20       0.00       0.12       0.00      17.10       0.00      17.10        0.00     0.10   0.994
  s526                      17.20       0.00       0.11       1.72      15.43       0.00      15.43        0.00     0.47   0.897
  s527                      17.20       0.00       0.11       1.71      15.49       0.01      15.49        0.00     0.09   0.901
  s528                      17.20       0.00       0.12       0.00      17.06       0.00      17.06        0.00     0.10   0.992
  s529                      17.20       0.00       0.12       0.00      17.10       0.00      17.10        0.00     0.10   0.994
  s530                      17.20       0.00       0.11       1.72      15.34       0.00      15.34        0.00     0.09   0.892
  s531                      17.20       0.00       0.12       0.00      17.12       0.00      17.12        0.00     0.10   0.995
  s532                      17.20       0.00       0.12       0.00      17.00       0.00      17.00        0.00     1.01   0.988
  s533                      17.20       0.00       0.12       0.00      17.05       0.00      17.05        0.00     0.41   0.992
  s534                      17.20       6.82       0.12       0.00      23.83       0.00      23.83        0.00     2.22   0.992
  s535                      17.20       0.00       0.11       1.72      15.42       0.00      15.42        0.00     0.47   0.897
  s536                      17.20       0.00       0.11       1.72      15.36       0.00      15.36        0.00     0.93   0.893
  s537                      17.20       0.00       0.11       1.71      15.48       0.00      15.49        0.00     0.09   0.901
  s538                      17.20       0.00       0.11       1.71      15.49       0.01      15.49        0.00     0.09   0.901
  s539                      17.20       0.00       0.11       1.71      15.48       0.00      15.49        0.00     0.09   0.901
  s540                      17.20       0.00       0.11       1.71      15.49       0.01      15.50        0.00     0.09   0.901
  s541                      17.20       0.00       0.11       1.71      15.48       0.00      15.49        0.00     0.09   0.900
  s542                      17.20       0.00       0.11       1.71      15.48       0.00      15.48        0.00     0.09   0.900
  s543                      17.20       0.00       0.11       1.72      15.32       0.00      15.33        0.00     1.40   0.891
  s544                      17.20       0.00       0.11       1.72      15.34       0.00      15.35        0.00     1.31   0.892
  s545                      17.20       0.00       0.11       1.72      15.36       0.00      15.37        0.00     0.47   0.893
  s546                      17.20       0.00       0.11       1.72      15.31       0.00      15.31        0.00     2.61   0.890
  s547                      17.20       0.00       0.11       1.72      15.23       0.00      15.24        0.00     0.37   0.886
  s548                      17.20       0.00       0.11       1.72      15.45       0.00      15.45        0.00     0.09   0.898
  s549                      17.20       0.00       0.11       1.72      15.39       0.00      15.40        0.00     0.19   0.895
  s550                      17.20       0.00       0.11       1.72      15.34       0.00      15.34        0.00     0.46   0.892
  s551                      17.20       0.00       0.11       1.72      15.32       0.00      15.32        0.00     1.75   0.891
  s552                      17.20      10.23       0.11       1.99      24.42       0.76      25.18        0.00     0.76   0.918
  s553                      17.20       0.00       0.11       1.72      15.23       0.00      15.24        0.00     0.37   0.886
  s554                      17.20       0.00       0.11       1.72      15.23       0.00      15.24        0.00     0.37   0.886
  s555                      17.20       0.00       0.11       1.71      15.48       0.00      15.48        0.00     0.09   0.900
  s556                      17.20       0.00       0.11       1.72      15.33       0.00      15.33        0.00     0.47   0.891
  s557                      17.20       0.00       0.11       1.72      15.29       0.00      15.30        0.00     3.16   0.889
  s558                      17.20       0.00       0.11       1.71      15.45       0.00      15.46        0.00     0.09   0.899
  s559                      17.20       0.00       0.11       1.72      15.39       0.00      15.39        0.00     0.28   0.895
  s560                      17.20       0.00       0.11       1.72      15.43       0.00      15.43        0.00     0.19   0.897
  s561                      17.20       0.00       0.12       0.00      16.99       0.00      16.99        0.00     0.20   0.988
  s562                      17.20       0.00       0.12       0.00      17.10       0.00      17.10        0.00     0.10   0.994
  s563                      17.20       0.00       0.11       1.71      15.47       0.00      15.47        0.00     0.09   0.900
  s564                      17.20       0.00       0.11       1.71      15.46       0.00      15.47        0.00     0.09   0.899
  s565                      17.20      10.88       0.11       1.97      25.14       0.84      25.98        0.00     3.86   0.925
  s566                      17.20       0.00       0.11       1.71      15.45       0.00      15.46        0.00     0.09   0.899
  s567                      17.20       0.00       0.11       1.72      15.34       0.00      15.34        0.00     0.28   0.892
  s568                      17.20      37.57       0.11       2.13      49.12       3.36      52.48        0.00     3.79   0.958
  s569                      17.20       0.00       0.11       1.72      15.41       0.00      15.41        0.00     0.47   0.896
  s570                      17.20       0.00       0.11       1.72      15.43       0.00      15.44        0.00     0.28   0.898
  s571                      17.20       0.00       0.11       1.72      15.46       0.00      15.46        0.00     0.09   0.899
  s572                      17.20       0.00       0.11       1.72      15.46       0.00      15.46        0.00     0.09   0.899
  s573                      17.20       0.00       0.02      15.25       1.73       0.23       1.96        0.00     0.01   0.114
[...]
  SWD4032021                  0.01      0.01      0.49      0.01         0.01
  SWD4031407                  0.01      0.01      1.23      0.01         0.01
  SWD4031410                  0.01      0.01      0.53      0.01         0.01
  SWD4031286                  1.21      1.21      1.22      0.07         0.07
  SWD4031312                  0.01      0.01      0.49      0.01         0.01
  SWD4031313                  0.55      0.55      0.56      0.45         0.32
  SWD4032002                  0.01      0.10      0.01      0.38         0.01
  SWD4032011                  0.01      0.01      0.49      0.01         0.01
  SWD4031416                  0.01      0.01      1.14      0.01         0.01
  SWD4031417                  0.01      0.01      0.21      0.01         0.01
  SWD4031981                  0.01      0.05      0.01      0.28         0.01
  SWD4031315                  0.01      0.01      0.01      0.25         0.01
  SWD4031384                  0.76      0.76      1.01      0.01         0.01
  SWD4031285                  0.09      0.09      1.25      0.01         0.01
  SWD4032494                  0.29      0.29      0.61      0.14         0.14
  SWD4031438                  1.23      1.23      1.24      0.01         0.01
  SWD4031441                  0.01      0.01      0.44      0.01         0.01
  SWD4031442                  0.44      0.44      1.24      0.01         0.01
  SWD4036083                  0.17      0.17      0.24      0.16         0.16
  SWD4042094                  0.14      0.47      0.14      0.48         0.14
  SWD4042095                  0.01      0.01      0.01      0.03         0.01
  SWD4068001                  0.01      0.01      0.01      0.25         0.01
  SWD4069660                  0.08      0.09      0.09      0.08         0.07
  SWD4069656                  0.01      0.01      0.01      0.02         0.01
  SWD4081004                  1.27      1.27      1.28      0.01         0.01
  SWD4081000                  0.14      0.14      0.23      0.14         0.13
  SWD4081001                  0.12      0.23      0.14      0.30         0.12
  SWD4086064                  0.03      0.03      0.09      0.01         0.01
  SWD4094826                  0.01      0.01      0.47      0.01         0.01
  SWD4097921                  0.01      0.01      0.01      0.10         0.01
  SWD4095504                  0.01      0.01      0.41      0.01         0.01
  SWD4100267                  0.01      0.01      0.01      0.12         0.01
  SWD4100266                  0.01      0.01      0.01      0.10         0.01
  SWD4100265                  0.01      0.01      0.01      0.07         0.01
  SWD4013554                  0.49      0.49      0.52      0.44         0.44
  SWD4098592                  0.01      0.01      1.25      0.01         0.01
  SWD4062146                  0.26      0.26      0.41      0.12         0.12
  SWD4094805                  0.07      0.07      0.09      0.01         0.01
  SWD4031507                  0.01      0.01      0.01      0.07         0.01
  SWD4032031                  0.18      0.18      0.20      0.01         0.01
  SWD4032049                  0.45      0.45      1.10      0.01         0.01
  SWD4032052                  0.41      0.41      1.10      0.01         0.01
  SWD4031484                  0.12      0.12      0.27      0.01         0.01
  SWD4031487                  0.22      0.51      0.22      0.56         0.22
  SWD4031500                  0.01      0.01      0.03      0.04         0.01
  SWD4031503                  0.01      0.01      0.01      0.09         0.01
  SWD4032177                  0.01      0.01      0.22      0.01         0.01
  SWD4036081                  0.01      0.01      0.62      0.01         0.01
  SWD4032709                  0.01      0.41      0.01      0.47         0.01
  SWD4115249                  0.01      0.01      0.61      0.01         0.01
  SWD4095501                  0.96      0.96      1.16      0.01         0.01
  SWD4031308                  0.01      0.01      0.19      0.01         0.01
  SWD4113765                  0.70      0.70      1.23      0.01         0.01
  SWD4031938                  0.01      0.01      0.01      0.06         0.01
  SWD4115531                  0.01      0.01      1.20      0.01         0.01
  SWD4115535                  0.08      0.08      0.08      0.01         0.01
  SWD4116460                  0.01      0.01      0.05      0.01         0.01
  SWD4116462                  0.01      0.01      0.74      0.01         0.01
  SWD4135981                  1.04      1.04      1.26      0.01         0.01
  SWD4135982                  0.84      0.84      1.04      0.01         0.01
  SWD4031550                  0.36      0.36      0.50      0.01         0.01
  SWD4032464                  0.01      0.01      0.50      0.01         0.01
  SWD4031697                  0.01      0.01      0.11      0.01         0.01
  SWD40316101                 0.01      0.01      0.07      0.01         0.01
  SWD4115250                  0.09      0.09      0.12      0.01         0.01
  SWD4036082                  0.11      0.11      0.45      0.07         0.07
  SWD4031515                  0.04      0.04      0.52      0.01         0.01
  SWD4031393                  0.08      0.08      0.15      0.09         0.03
  SWD4031592                  0.01      0.01      0.45      0.01         0.01
  SWD4095521                  0.16      0.16      0.20      0.20         0.14
  SWD4031403                  0.01      0.01      0.29      0.01         0.01
  SWD4031439                  0.01      0.01      0.44      0.01         0.01
  SWD4062128                  0.01      0.41      0.01      0.42         0.01
  SWD4072980                  0.01      0.21      0.01      0.25         0.01
  SWD4032025                  0.01      0.03      0.01      0.07         0.01
  SWD4031492                  0.16      0.16      0.24      0.01         0.01
  SWD4115140                  0.08      0.08      0.11      0.01         0.01
  SWD4089020                  0.01      0.01      0.07      0.01         0.01
  SWD4031923                  0.01      0.01      0.09      0.01         0.01
  SWD4136288                  0.12      0.12      0.72      0.01         0.01
  SWD4136319                  0.01      0.01      0.01      0.18         0.01
  SWD41243411                 1.21      1.21      1.23      0.01         0.01
  SWD4031531                  0.01      0.01      0.14      0.01         0.01
  SWD4031379                  0.64      0.64      0.65      0.01         0.01
  SWD41243412                 0.01      0.01      0.01      0.07         0.01
  SMD4001188                  0.01      0.17      0.01      0.22         0.01
  SMD4001189                  0.15      0.15      0.44      0.11         0.11
  SMD4001190                  0.11      0.11      0.19      0.11         0.10
  SMD4001200                  0.01      0.01      0.10      0.01         0.01
  SWD40316102                 0.01      0.07      0.01      0.27         0.01
  SBP4013682                  0.01      0.01      0.02      0.01         0.01
  SBP4009706                  0.01      0.01      1.16      0.01         0.01
  SBP40098201                 0.16      0.16      0.56      0.01         0.01
  SBP40098202                 0.16      0.16      0.56      0.01         0.01
  SBP4013681                  0.01      0.01      0.01      0.01         0.01
  
  
  ************
  Node Results
  ************
  
  <<< Node SBP40128811 >>>
  ----------------------------------------------------------------
                           Inflow  Flooding     Depth      Head
  Date        Time            LPS       LPS    meters    meters
  ----------------------------------------------------------------
   07/24/2021 12:02:00      0.000     0.000     0.000     2.900
   07/24/2021 12:04:00      0.000     0.000     0.000     2.900
   07/24/2021 12:06:00      0.000     0.000     0.000     2.900
   07/24/2021 12:08:00      0.000     0.000     0.000     2.900
   07/24/2021 12:10:00      0.000     0.000     0.000     2.900
   07/24/2021 12:12:00      0.000     0.000     0.000     2.900
   07/24/2021 12:14:00      0.000     0.000     0.000     2.900
   07/24/2021 12:16:00      0.000     0.000     0.000     2.900
   07/24/2021 12:18:00      0.000     0.000     0.000     2.900
   07/24/2021 12:20:00      0.000     0.000     0.000     2.900
   07/24/2021 12:22:00      0.000     0.000     0.000     2.900
   07/24/2021 12:24:00      0.000     0.000     0.000     2.900
   07/24/2021 12:26:00      0.000     0.000     0.000     2.900
   07/24/2021 12:28:00      0.000     0.000     0.000     2.900
   07/24/2021 12:30:00      0.000     0.000     0.000     2.900
   07/24/2021 12:32:00      0.000     0.000     0.000     2.900
   07/24/2021 12:34:00      0.000     0.000     0.000     2.900
   07/24/2021 12:36:00      0.000     0.000     0.000     2.900
   07/24/2021 12:38:00      0.000     0.000     0.000     2.900
   07/24/2021 12:40:00      0.000     0.000     0.000     2.900
   07/24/2021 12:42:00      0.000     0.000     0.000     2.900
   07/24/2021 12:44:00      0.000     0.000     0.000     2.900
   07/24/2021 12:46:00      0.000     0.000     0.000     2.900
   07/24/2021 12:48:00      0.000     0.000     0.000     2.900
   07/24/2021 12:50:00      0.000     0.000     0.000     2.900
   07/24/2021 12:52:00      0.000     0.000     0.000     2.900
   07/24/2021 12:54:00      0.000     0.000     0.000     2.900
   07/24/2021 12:56:00      0.000     0.000     0.000     2.900
   07/24/2021 12:58:00      0.000     0.000     0.000     2.900
   07/24/2021 13:00:00      0.000     0.000     0.000     2.900
   07/24/2021 13:02:00      0.000     0.000     0.000     2.900
   07/24/2021 13:04:00      0.000     0.000     0.000     2.900
   07/24/2021 13:06:00      0.000     0.000     0.000     2.900
   07/24/2021 13:08:00      0.000     0.000     0.000     2.900
   07/24/2021 13:10:00      0.000     0.000     0.000     2.900
   07/24/2021 13:12:00      0.000     0.000     0.000     2.900
   07/24/2021 13:14:00      0.000     0.000     0.000     2.900
   07/24/2021 13:16:00      0.000     0.000     0.000     2.900
   07/24/2021 13:18:00      0.000     0.000     0.000     2.900
   07/24/2021 13:20:00      0.000     0.000     0.000     2.900
   07/24/2021 13:22:00      0.000     0.000     0.000     2.900
   07/24/2021 13:24:00      0.000     0.000     0.000     2.900
   07/24/2021 13:26:00      0.000     0.000     0.000     2.900
   07/24/2021 13:28:00      0.000     0.000     0.000     2.900
   07/24/2021 13:30:00      0.000     0.000     0.000     2.900
   07/24/2021 13:32:00      0.000     0.000     0.000     2.900
   07/24/2021 13:34:00      0.000     0.000     0.000     2.900
   07/24/2021 13:36:00      0.000     0.000     0.000     2.900
   07/24/2021 13:38:00      0.000     0.000     0.000     2.900
   07/24/2021 13:40:00      0.000     0.000     0.000     2.900
   07/24/2021 13:42:00      0.000     0.000     0.000     2.900
   07/24/2021 13:44:00      0.000     0.000     0.000     2.900
   07/24/2021 13:46:00      0.002     0.000     0.000     2.900
   07/24/2021 13:48:00      0.317     0.000     0.001     2.901
   07/24/2021 13:50:00      3.415     0.000     0.004     2.904
   07/24/2021 13:52:00     38.627     0.000     0.019     2.919
   07/24/2021 13:54:00    159.851     0.000     0.048     2.948
   07/24/2021 13:56:00    204.626     0.000     0.057     2.957
   07/24/2021 13:58:00    225.630     0.000     0.061     2.961
   07/24/2021 14:00:00    469.573     0.000     0.099     2.999
   07/24/2021 14:02:00    770.463     0.000     0.138     3.038
   07/24/2021 14:04:00    904.528     0.000     0.154     3.054
   07/24/2021 14:06:00   1036.602     0.000     0.168     3.068
   07/24/2021 14:08:00   1270.799     0.000     0.193     3.093
   07/24/2021 14:10:00   1498.244     0.000     0.215     3.115
   07/24/2021 14:12:00   1735.546     0.000     0.237     3.137
   07/24/2021 14:14:00   1890.317     0.000     0.251     3.151
   07/24/2021 14:16:00   1845.558     0.000     0.247     3.147
   07/24/2021 14:18:00   1657.413     0.000     0.230     3.130
   07/24/2021 14:20:00   1411.493     0.000     0.207     3.107
   07/24/2021 14:22:00   1160.229     0.000     0.181     3.081
   07/24/2021 14:24:00    927.424     0.000     0.156     3.056
   07/24/2021 14:26:00    729.191     0.000     0.133     3.033
   07/24/2021 14:28:00    569.495     0.000     0.113     3.013
   07/24/2021 14:30:00    446.206     0.000     0.096     2.996
   07/24/2021 14:32:00    354.107     0.000     0.082     2.982
   07/24/2021 14:34:00    284.178     0.000     0.071     2.971
   07/24/2021 14:36:00    231.061     0.000     0.062     2.962
   07/24/2021 14:38:00    190.941     0.000     0.054     2.954
   07/24/2021 14:40:00    159.745     0.000     0.048     2.948
   07/24/2021 14:42:00    135.331     0.000     0.043     2.943
   07/24/2021 14:44:00    116.374     0.000     0.039     2.939
   07/24/2021 14:46:00    101.249     0.000     0.036     2.936
   07/24/2021 14:48:00     88.846     0.000     0.033     2.933
   07/24/2021 14:50:00     78.492     0.000     0.030     2.930
   07/24/2021 14:52:00     69.701     0.000     0.028     2.928
   07/24/2021 14:54:00     62.161     0.000     0.026     2.926
   07/24/2021 14:56:00     55.679     0.000     0.024     2.924
   07/24/2021 14:58:00     50.094     0.000     0.022     2.922
   07/24/2021 15:00:00     45.254     0.000     0.021     2.921
  
  
  <<< Node SBP40184801 >>>
  ----------------------------------------------------------------
                           Inflow  Flooding     Depth      Head
  Date        Time            LPS       LPS    meters    meters
  ----------------------------------------------------------------
   07/24/2021 12:02:00     65.000     0.000     0.000     2.860
   07/24/2021 12:04:00     65.000     0.000     0.000     2.860
   07/24/2021 12:06:00     65.000     0.000     0.000     2.860
   07/24/2021 12:08:00     65.000     0.000     0.000     2.860
   07/24/2021 12:10:00     65.000     0.000     0.000     2.860
   07/24/2021 12:12:00     65.000     0.000     0.000     2.860
   07/24/2021 12:14:00     65.000     0.000     0.000     2.860
   07/24/2021 12:16:00     65.000     0.000     0.000     2.860
   07/24/2021 12:18:00     65.000     0.000     0.000     2.860
   07/24/2021 12:20:00     65.000     0.000     0.000     2.860
   07/24/2021 12:22:00     65.000     0.000     0.000     2.860
   07/24/2021 12:24:00     65.000     0.000     0.000     2.860
   07/24/2021 12:26:00     65.000     0.000     0.000     2.860
   07/24/2021 12:28:00     65.000     0.000     0.000     2.860
   07/24/2021 12:30:00     65.000     0.000     0.000     2.860
   07/24/2021 12:32:00     65.000     0.000     0.000     2.860
   07/24/2021 12:34:00     65.000     0.000     0.000     2.860
   07/24/2021 12:36:00     65.000     0.000     0.000     2.860
   07/24/2021 12:38:00     65.000     0.000     0.000     2.860
   07/24/2021 12:40:00     65.000     0.000     0.000     2.860
   07/24/2021 12:42:00     65.000     0.000     0.000     2.860
   07/24/2021 12:44:00     65.000     0.000     0.000     2.860
   07/24/2021 12:46:00     65.000     0.000     0.000     2.860
   07/24/2021 12:48:00     65.000     0.000     0.000     2.860
   07/24/2021 12:50:00     65.000     0.000     0.000     2.860
   07/24/2021 12:52:00     65.000     0.000     0.000     2.860
   07/24/2021 12:54:00     65.000     0.000     0.000     2.860
   07/24/2021 12:56:00     65.000     0.000     0.000     2.860
   07/24/2021 12:58:00     65.000     0.000     0.000     2.860
   07/24/2021 13:00:00     65.000     0.000     0.000     2.860
   07/24/2021 13:02:00     65.000     0.000     0.000     2.860
   07/24/2021 13:04:00     65.000     0.000     0.000     2.860
   07/24/2021 13:06:00     65.000     0.000     0.000     2.860
   07/24/2021 13:08:00     65.000     0.000     0.000     2.860
   07/24/2021 13:10:00     65.000     0.000     0.000     2.860
   07/24/2021 13:12:00     65.000     0.000     0.000     2.860
   07/24/2021 13:14:00     65.000     0.000     0.000     2.860
   07/24/2021 13:16:00     65.000     0.000     0.000     2.860
   07/24/2021 13:18:00     65.000     0.000     0.000     2.860
   07/24/2021 13:20:00     65.000     0.000     0.000     2.860
   07/24/2021 13:22:00     65.000     0.000     0.000     2.860
   07/24/2021 13:24:00     65.000     0.000     0.000     2.860
   07/24/2021 13:26:00     65.000     0.000     0.000     2.860
   07/24/2021 13:28:00     65.000     0.000     0.000     2.860
   07/24/2021 13:30:00     65.000     0.000     0.000     2.860
   07/24/2021 13:32:00     65.000     0.000     0.000     2.860
   07/24/2021 13:34:00     65.000     0.000     0.000     2.860
   07/24/2021 13:36:00     65.000     0.000     0.000     2.860
   07/24/2021 13:38:00     65.000     0.000     0.000     2.860
   07/24/2021 13:40:00     65.000     0.000     0.000     2.860
   07/24/2021 13:42:00     65.000     0.000     0.000     2.860
   07/24/2021 13:44:00     65.002     0.000     0.000     2.860
   07/24/2021 13:46:00     65.007     0.000     0.000     2.860
   07/24/2021 13:48:00     65.045     0.000     0.000     2.860
   07/24/2021 13:50:00     68.112     0.000     0.005     2.865
   07/24/2021 13:52:00     85.637     0.000     0.017     2.877
   07/24/2021 13:54:00    112.101     0.000     0.029     2.889
   07/24/2021 13:56:00    158.437     0.000     0.046     2.906
   07/24/2021 13:58:00    791.781     0.000     0.182     3.042
   07/24/2021 14:00:00   1343.960     0.000     0.265     3.125
   07/24/2021 14:02:00   1573.994     0.000     0.295     3.155
   07/24/2021 14:04:00   1710.516     0.000     0.313     3.173
   07/24/2021 14:06:00   2072.271     0.000     0.357     3.217
   07/24/2021 14:08:00   2399.916     0.000     0.395     3.255
   07/24/2021 14:10:00   2691.862     0.000     0.427     3.287
   07/24/2021 14:12:00   2932.798     0.000     0.453     3.313
   07/24/2021 14:14:00   3029.668     0.000     0.463     3.323
   07/24/2021 14:16:00   2946.571     0.000     0.455     3.315
   07/24/2021 14:18:00   2745.323     0.000     0.433     3.293
   07/24/2021 14:20:00   2480.965     0.000     0.404     3.264
   07/24/2021 14:22:00   2217.483     0.000     0.374     3.234
   07/24/2021 14:24:00   1954.268     0.000     0.343     3.203
   07/24/2021 14:26:00   1700.231     0.000     0.312     3.172
   07/24/2021 14:28:00   1473.615     0.000     0.282     3.142
   07/24/2021 14:30:00   1282.583     0.000     0.256     3.116
   07/24/2021 14:32:00   1112.961     0.000     0.232     3.092
   07/24/2021 14:34:00    968.752     0.000     0.210     3.070
   07/24/2021 14:36:00    843.197     0.000     0.190     3.050
   07/24/2021 14:38:00    735.708     0.000     0.172     3.032
   07/24/2021 14:40:00    649.976     0.000     0.157     3.017
   07/24/2021 14:42:00    573.399     0.000     0.143     3.003
   07/24/2021 14:44:00    507.441     0.000     0.130     2.990
   07/24/2021 14:46:00    449.264     0.000     0.119     2.979
   07/24/2021 14:48:00    403.770     0.000     0.109     2.969
   07/24/2021 14:50:00    365.688     0.000     0.101     2.961
   07/24/2021 14:52:00    331.460     0.000     0.093     2.953
   07/24/2021 14:54:00    301.792     0.000     0.086     2.946
   07/24/2021 14:56:00    276.049     0.000     0.080     2.940
   07/24/2021 14:58:00    253.549     0.000     0.074     2.934
   07/24/2021 15:00:00    234.142     0.000     0.069     2.929
  

  Analysis begun on:  Tue Apr  5 14:12:30 2022
  Analysis ended on:  Tue Apr  5 14:12:44 2022
  Total elapsed time: 00:00:14